
#######################################################################
#
#                 Cambridge Crystallographic Data Centre
#                                CCDC 
#
#######################################################################
#
# If this CIF has been generated from an entry in the Cambridge 
# Structural Database, then it will include bibliographic, chemical, 
# crystal, experimental, refinement or atomic coordinate data resulting 
# from the CCDC's data processing and validation procedures.
#
#######################################################################

data_IRMOF-4
_symmetry_cell_setting           triclinic
_symmetry_space_group_name_H-M   'P 1'
_symmetry_Int_Tables_number      1
_space_group_name_Hall           'P 1'
loop_
_symmetry_equiv_pos_site_id
_symmetry_equiv_pos_as_xyz
1 x,y,z
_cell_length_a                   25.8493
_cell_length_b                   25.8493
_cell_length_c                   25.8493
_cell_angle_alpha                90
_cell_angle_beta                 90
_cell_angle_gamma                90
_cell_volume                     17272.1
loop_
_atom_site_label
_atom_site_type_symbol
_atom_site_fract_x
_atom_site_fract_y
_atom_site_fract_z
Zn1 Zn 0.29332 0.29332 0.20668
O1 O 0.25 0.25 0.25
O2 O 0.28124 0.28124 0.13401
C1 C 0.25 0.25 0.11187
C2 C 0.25 0.25 0.05447
C4 C 0.25348 0.29287 0.02658
Zn1 Zn 0.70668 0.70668 0.20668
O1 O 0.75 0.75 0.25
O2 O 0.71876 0.71876 0.13401
C1 C 0.75 0.75 0.11187
C2 C 0.75 0.75 0.05447
C4 C 0.74652 0.70713 0.02658
Zn1 Zn 0.70668 0.29332 0.79332
O1 O 0.75 0.25 0.75
O2 O 0.71876 0.28124 0.86599
C1 C 0.75 0.25 0.88813
C2 C 0.75 0.25 0.94553
C4 C 0.74652 0.29287 0.97342
Zn1 Zn 0.29332 0.70668 0.79332
O1 O 0.25 0.75 0.75
O2 O 0.28124 0.71876 0.86599
C1 C 0.25 0.75 0.88813
C2 C 0.25 0.75 0.94553
C4 C 0.25348 0.70713 0.97342
Zn1 Zn 0.20668 0.29332 0.29332
O2 O 0.13401 0.28124 0.28124
C1 C 0.11187 0.25 0.25
C2 C 0.05447 0.25 0.25
C4 C 0.02658 0.25348 0.29287
Zn1 Zn 0.20668 0.70668 0.70668
O2 O 0.13401 0.71876 0.71876
C1 C 0.11187 0.75 0.75
C2 C 0.05447 0.75 0.75
C4 C 0.02658 0.74652 0.70713
Zn1 Zn 0.79332 0.70668 0.29332
O2 O 0.86599 0.71876 0.28124
C1 C 0.88813 0.75 0.25
C2 C 0.94553 0.75 0.25
C4 C 0.97342 0.74652 0.29287
Zn1 Zn 0.79332 0.29332 0.70668
O2 O 0.86599 0.28124 0.71876
C1 C 0.88813 0.25 0.75
C2 C 0.94553 0.25 0.75
C4 C 0.97342 0.25348 0.70713
Zn1 Zn 0.29332 0.20668 0.29332
O2 O 0.28124 0.13401 0.28124
C1 C 0.25 0.11187 0.25
C2 C 0.25 0.05447 0.25
C4 C 0.29287 0.02658 0.25348
Zn1 Zn 0.70668 0.20668 0.70668
O2 O 0.71876 0.13401 0.71876
C1 C 0.75 0.11187 0.75
C2 C 0.75 0.05447 0.75
C4 C 0.70713 0.02658 0.74652
Zn1 Zn 0.29332 0.79332 0.70668
O2 O 0.28124 0.86599 0.71876
C1 C 0.25 0.88813 0.75
C2 C 0.25 0.94553 0.75
C4 C 0.29287 0.97342 0.74652
Zn1 Zn 0.70668 0.79332 0.29332
O2 O 0.71876 0.86599 0.28124
C1 C 0.75 0.88813 0.25
C2 C 0.75 0.94553 0.25
C4 C 0.70713 0.97342 0.25348
Zn1 Zn 0.29332 0.29332 0.79332
O1 O 0.25 0.25 0.75
O2 O 0.28124 0.28124 -0.13401
C1 C 0.25 0.25 -0.11187
C2 C 0.25 0.25 -0.05447
C7 C 0.39971 0.24918 0.95953
C6 C 0.42645 0.28959 0.92645
Zn1 Zn 0.70668 0.70668 0.79332
O1 O 0.75 0.75 0.75
O2 O 0.71876 0.71876 -0.13401
C1 C 0.75 0.75 -0.11187
C2 C 0.75 0.75 -0.05447
C7 C 0.60029 0.75082 0.95953
C6 C 0.57355 0.71041 0.92645
Zn1 Zn 0.29332 0.70668 0.20668
O1 O 0.25 0.75 0.25
O2 O 0.28124 0.71876 1.13401
C1 C 0.25 0.75 1.11187
C2 C 0.25 0.75 1.05447
C7 C 0.39971 0.75082 0.04047
C6 C 0.42645 0.71041 0.07355
Zn1 Zn 0.70668 0.29332 0.20668
O1 O 0.75 0.25 0.25
O2 O 0.71876 0.28124 1.13401
C1 C 0.75 0.25 1.11187
C2 C 0.75 0.25 1.05447
C7 C 0.60029 0.24918 0.04047
C6 C 0.57355 0.28959 0.07355
Zn1 Zn 0.29332 0.20668 0.70668
O2 O 0.28124 1.13401 0.71876
C1 C 0.25 1.11187 0.75
C2 C 0.25 1.05447 0.75
C7 C 0.24918 0.04047 0.60029
C6 C 0.28959 0.07355 0.57355
Zn1 Zn 0.70668 0.20668 0.29332
O2 O 0.71876 1.13401 0.28124
C1 C 0.75 1.11187 0.25
C2 C 0.75 1.05447 0.25
C7 C 0.75082 0.04047 0.39971
C6 C 0.71041 0.07355 0.42645
Zn1 Zn 0.70668 0.79332 0.70668
O2 O 0.71876 -0.13401 0.71876
C1 C 0.75 -0.11187 0.75
C2 C 0.75 -0.05447 0.75
C7 C 0.75082 0.95953 0.60029
C6 C 0.71041 0.92645 0.57355
Zn1 Zn 0.29332 0.79332 0.29332
O2 O 0.28124 -0.13401 0.28124
C1 C 0.25 -0.11187 0.25
C2 C 0.25 -0.05447 0.25
C7 C 0.24918 0.95953 0.39971
C6 C 0.28959 0.92645 0.42645
Zn1 Zn 0.20668 0.29332 0.70668
O2 O 1.13401 0.28124 0.71876
C1 C 1.11187 0.25 0.75
C2 C 1.05447 0.25 0.75
C7 C 0.04047 0.39971 0.75082
C6 C 0.07355 0.42645 0.71041
Zn1 Zn 0.20668 0.70668 0.29332
O2 O 1.13401 0.71876 0.28124
C1 C 1.11187 0.75 0.25
C2 C 1.05447 0.75 0.25
C7 C 0.04047 0.60029 0.24918
C6 C 0.07355 0.57355 0.28959
Zn1 Zn 0.79332 0.29332 0.29332
O2 O -0.13401 0.28124 0.28124
C1 C -0.11187 0.25 0.25
C2 C -0.05447 0.25 0.25
C7 C 0.95953 0.39971 0.24918
C6 C 0.92645 0.42645 0.28959
Zn1 Zn 0.79332 0.70668 0.70668
O2 O -0.13401 0.71876 0.71876
C1 C -0.11187 0.75 0.75
C2 C -0.05447 0.75 0.75
C7 C 0.95953 0.60029 0.75082
C6 C 0.92645 0.57355 0.71041
C3 C 0.74652 0.70713 -0.02658
O3 O 0.74054 0.65885 -0.05072
C5 C 0.75082 0.60029 -0.04047
C6 C 0.71041 0.57355 -0.07355
C3 C 0.25348 0.29287 -0.02658
O3 O 0.25946 0.34115 -0.05072
C5 C 0.24918 0.39971 -0.04047
C6 C 0.28959 0.42645 -0.07355
C3 C 0.25348 0.70713 1.02658
O3 O 0.25946 0.65885 1.05072
C5 C 0.24918 0.60029 1.04047
C6 C 0.28959 0.57355 1.07355
C3 C 0.74652 0.29287 1.02658
O3 O 0.74054 0.34115 1.05072
C5 C 0.75082 0.39971 1.04047
C6 C 0.71041 0.42645 1.07355
C3 C -0.02658 0.74652 0.70713
O3 O -0.05072 0.74054 0.65885
C5 C -0.04047 0.75082 0.60029
C6 C -0.07355 0.71041 0.57355
C3 C -0.02658 0.25348 0.29287
O3 O -0.05072 0.25946 0.34115
C5 C -0.04047 0.24918 0.39971
C6 C -0.07355 0.28959 0.42645
C3 C 1.02658 0.25348 0.70713
O3 O 1.05072 0.25946 0.65885
C5 C 1.04047 0.24918 0.60029
C6 C 1.07355 0.28959 0.57355
C3 C 1.02658 0.74652 0.29287
O3 O 1.05072 0.74054 0.34115
C5 C 1.04047 0.75082 0.39971
C6 C 1.07355 0.71041 0.42645
C3 C 0.70713 -0.02658 0.74652
O3 O 0.65885 -0.05072 0.74054
C5 C 0.60029 -0.04047 0.75082
C6 C 0.57355 -0.07355 0.71041
C3 C 0.29287 -0.02658 0.25348
O3 O 0.34115 -0.05072 0.25946
C5 C 0.39971 -0.04047 0.24918
C6 C 0.42645 -0.07355 0.28959
C3 C 0.70713 1.02658 0.25348
O3 O 0.65885 1.05072 0.25946
C5 C 0.60029 1.04047 0.24918
C6 C 0.57355 1.07355 0.28959
C3 C 0.29287 1.02658 0.74652
O3 O 0.34115 1.05072 0.74054
C5 C 0.39971 1.04047 0.75082
C6 C 0.42645 1.07355 0.71041
O2 O 0.28124 0.78124 0.63401
C1 C 0.25 0.75 0.61187
C2 C 0.25 0.75 0.55447
C4 C 0.25348 0.79287 0.52658
O2 O 0.71876 0.21876 0.63401
C1 C 0.75 0.25 0.61187
C2 C 0.75 0.25 0.55447
C4 C 0.74652 0.20713 0.52658
O2 O 0.71876 0.78124 0.36599
C1 C 0.75 0.75 0.38813
C2 C 0.75 0.75 0.44553
C4 C 0.74652 0.79287 0.47342
O2 O 0.28124 0.21876 0.36599
C1 C 0.25 0.25 0.38813
C2 C 0.25 0.25 0.44553
C4 C 0.25348 0.20713 0.47342
Zn1 Zn 0.20668 0.79332 0.79332
O2 O 0.13401 0.78124 0.78124
C3 C 0.02658 0.75348 0.79287
O3 O 0.05072 0.75946 0.84115
C5 C 0.04047 0.74918 0.89971
C6 C 0.07355 0.78959 0.92645
Zn1 Zn 0.20668 0.20668 0.20668
O2 O 0.13401 0.21876 0.21876
C3 C 0.02658 0.24652 0.20713
O3 O 0.05072 0.24054 0.15885
C5 C 0.04047 0.25082 0.10029
C6 C 0.07355 0.21041 0.07355
Zn1 Zn 0.79332 0.20668 0.79332
O2 O 0.86599 0.21876 0.78124
C3 C 0.97342 0.24652 0.79287
O3 O 0.94928 0.24054 0.84115
C5 C 0.95953 0.25082 0.89971
C6 C 0.92645 0.21041 0.92645
Zn1 Zn 0.79332 0.79332 0.20668
O2 O 0.86599 0.78124 0.21876
C3 C 0.97342 0.75348 0.20713
O3 O 0.94928 0.75946 0.15885
C5 C 0.95953 0.74918 0.10029
C6 C 0.92645 0.78959 0.07355
O2 O 0.28124 0.63401 0.78124
C1 C 0.25 0.61187 0.75
C2 C 0.25 0.55447 0.75
C3 C 0.29287 0.52658 0.75348
O3 O 0.34115 0.55072 0.75946
C5 C 0.39971 0.54047 0.74918
C6 C 0.42645 0.57355 0.78959
O2 O 0.71876 0.63401 0.21876
C1 C 0.75 0.61187 0.25
C2 C 0.75 0.55447 0.25
C3 C 0.70713 0.52658 0.24652
O3 O 0.65885 0.55072 0.24054
C5 C 0.60029 0.54047 0.25082
C6 C 0.57355 0.57355 0.21041
O2 O 0.28124 0.36599 0.21876
C1 C 0.25 0.38813 0.25
C2 C 0.25 0.44553 0.25
C3 C 0.29287 0.47342 0.24652
O3 O 0.34115 0.44928 0.24054
C5 C 0.39971 0.45953 0.25082
C6 C 0.42645 0.42645 0.21041
O2 O 0.71876 0.36599 0.78124
C1 C 0.75 0.38813 0.75
C2 C 0.75 0.44553 0.75
C3 C 0.70713 0.47342 0.75348
O3 O 0.65885 0.44928 0.75946
C5 C 0.60029 0.45953 0.74918
C6 C 0.57355 0.42645 0.78959
O2 O 0.28124 0.78124 0.36599
C1 C 0.25 0.75 0.38813
C2 C 0.25 0.75 0.44553
O2 O 0.71876 0.21876 0.36599
C1 C 0.75 0.25 0.38813
C2 C 0.75 0.25 0.44553
O2 O 0.28124 0.21876 0.63401
C1 C 0.25 0.25 0.61187
C2 C 0.25 0.25 0.55447
O2 O 0.71876 0.78124 0.63401
C1 C 0.75 0.75 0.61187
C2 C 0.75 0.75 0.55447
O2 O 0.28124 0.63401 0.21876
C1 C 0.25 0.61187 0.25
C2 C 0.25 0.55447 0.25
C7 C 0.24918 0.54047 1.10029
O2 O 0.71876 0.63401 0.78124
C1 C 0.75 0.61187 0.75
C2 C 0.75 0.55447 0.75
C7 C 0.75082 0.54047 -0.10029
O2 O 0.71876 0.36599 0.21876
C1 C 0.75 0.38813 0.25
C2 C 0.75 0.44553 0.25
C7 C 0.75082 0.45953 1.10029
O2 O 0.28124 0.36599 0.78124
C1 C 0.25 0.38813 0.75
C2 C 0.25 0.44553 0.75
C7 C 0.24918 0.45953 -0.10029
Zn1 Zn 0.20668 0.79332 0.20668
O2 O 1.13401 0.78124 0.21876
Zn1 Zn 0.20668 0.20668 0.79332
O2 O 1.13401 0.21876 0.78124
Zn1 Zn 0.79332 0.79332 0.79332
O2 O -0.13401 0.78124 0.78124
Zn1 Zn 0.79332 0.20668 0.20668
O2 O -0.13401 0.21876 0.21876
C3 C 0.74652 0.20713 0.47342
O3 O 0.74054 0.15885 0.44928
C5 C 0.75082 0.10029 0.45953
C3 C 0.25348 0.79287 0.47342
O3 O 0.25946 0.84115 0.44928
C5 C 0.24918 0.89971 0.45953
C3 C 0.25348 0.20713 0.52658
O3 O 0.25946 0.15885 0.55072
C5 C 0.24918 0.10029 0.54047
C3 C 0.74652 0.79287 0.52658
O3 O 0.74054 0.84115 0.55072
C5 C 0.75082 0.89971 0.54047
C4 C -0.02658 0.24652 0.20713
C4 C -0.02658 0.75348 0.79287
C4 C 1.02658 0.75348 0.20713
C4 C 1.02658 0.24652 0.79287
C4 C 0.70713 0.47342 0.24652
C4 C 0.29287 0.47342 0.75348
C4 C 0.70713 0.52658 0.75348
C4 C 0.29287 0.52658 0.24652
C7 C 0.60029 0.25082 0.54047
C6 C 0.57355 0.21041 0.57355
C7 C 0.39971 0.74918 0.54047
C6 C 0.42645 0.78959 0.57355
C7 C 0.60029 0.74918 0.45953
C6 C 0.57355 0.78959 0.42645
C7 C 0.39971 0.25082 0.45953
C6 C 0.42645 0.21041 0.42645
C7 C 0.95953 0.10029 0.74918
C6 C 0.92645 0.07355 0.78959
C7 C 0.95953 0.89971 0.25082
C6 C 0.92645 0.92645 0.21041
C7 C 0.04047 0.10029 0.25082
C6 C 0.07355 0.07355 0.21041
C7 C 0.04047 0.89971 0.74918
C6 C 0.07355 0.92645 0.78959
O2 O 0.78124 0.28124 0.63401
C3 C 0.75348 0.29287 0.52658
O3 O 0.75946 0.34115 0.55072
C5 C 0.74918 0.39971 0.54047
C6 C 0.78959 0.42645 0.57355
O2 O 0.21876 0.71876 0.63401
C3 C 0.24652 0.70713 0.52658
O3 O 0.24054 0.65885 0.55072
C5 C 0.25082 0.60029 0.54047
C6 C 0.21041 0.57355 0.57355
O2 O 0.21876 0.28124 0.36599
C3 C 0.24652 0.29287 0.47342
O3 O 0.24054 0.34115 0.44928
C5 C 0.25082 0.39971 0.45953
C6 C 0.21041 0.42645 0.42645
O2 O 0.78124 0.71876 0.36599
C3 C 0.75348 0.70713 0.47342
O3 O 0.75946 0.65885 0.44928
C5 C 0.74918 0.60029 0.45953
C6 C 0.78959 0.57355 0.42645
O2 O 0.63401 0.28124 0.78124
C1 C 0.61187 0.25 0.75
C2 C 0.55447 0.25 0.75
C4 C 0.52658 0.25348 0.79287
O2 O 0.63401 0.71876 0.21876
C1 C 0.61187 0.75 0.25
C2 C 0.55447 0.75 0.25
C4 C 0.52658 0.74652 0.20713
O2 O 0.36599 0.71876 0.78124
C1 C 0.38813 0.75 0.75
C2 C 0.44553 0.75 0.75
C4 C 0.47342 0.74652 0.79287
O2 O 0.36599 0.28124 0.21876
C1 C 0.38813 0.25 0.25
C2 C 0.44553 0.25 0.25
C4 C 0.47342 0.25348 0.20713
O2 O 0.78124 0.13401 0.78124
C3 C 0.79287 0.02658 0.75348
O3 O 0.84115 0.05072 0.75946
C5 C 0.89971 0.04047 0.74918
O2 O 0.21876 0.13401 0.21876
C3 C 0.20713 0.02658 0.24652
O3 O 0.15885 0.05072 0.24054
C5 C 0.10029 0.04047 0.25082
O2 O 0.78124 0.86599 0.21876
C3 C 0.79287 0.97342 0.24652
O3 O 0.84115 0.94928 0.24054
C5 C 0.89971 0.95953 0.25082
O2 O 0.21876 0.86599 0.78124
C3 C 0.20713 0.97342 0.75348
O3 O 0.15885 0.94928 0.75946
C5 C 0.10029 0.95953 0.74918
O2 O 0.78124 0.28124 0.36599
C7 C -0.10029 0.24918 0.45953
O2 O 0.21876 0.71876 0.36599
C7 C 1.10029 0.75082 0.45953
O2 O 0.78124 0.71876 0.63401
C7 C -0.10029 0.75082 0.54047
O2 O 0.21876 0.28124 0.63401
C7 C 1.10029 0.24918 0.54047
O2 O 0.78124 1.13401 0.21876
O2 O 0.21876 1.13401 0.78124
O2 O 0.21876 -0.13401 0.21876
O2 O 0.78124 -0.13401 0.78124
O2 O 0.63401 0.28124 0.21876
C1 C 0.61187 0.25 0.25
C2 C 0.55447 0.25 0.25
O2 O 0.63401 0.71876 0.78124
C1 C 0.61187 0.75 0.75
C2 C 0.55447 0.75 0.75
O2 O 0.36599 0.28124 0.78124
C1 C 0.38813 0.25 0.75
C2 C 0.44553 0.25 0.75
O2 O 0.36599 0.71876 0.21876
C1 C 0.38813 0.75 0.25
C2 C 0.44553 0.75 0.25
C4 C 0.24652 0.70713 0.47342
C4 C 0.75348 0.29287 0.47342
C4 C 0.75348 0.70713 0.52658
C4 C 0.24652 0.29287 0.52658
C3 C 0.47342 0.74652 0.20713
O3 O 0.44928 0.74054 0.15885
C5 C 0.45953 0.75082 0.10029
C3 C 0.47342 0.25348 0.79287
O3 O 0.44928 0.25946 0.84115
C5 C 0.45953 0.24918 0.89971
C3 C 0.52658 0.25348 0.20713
O3 O 0.55072 0.25946 0.15885
C5 C 0.54047 0.24918 0.10029
C3 C 0.52658 0.74652 0.79287
O3 O 0.55072 0.74054 0.84115
C5 C 0.54047 0.75082 0.89971
C4 C 0.20713 -0.02658 0.24652
C4 C 0.79287 -0.02658 0.75348
C4 C 0.20713 1.02658 0.75348
C4 C 0.79287 1.02658 0.24652
C7 C 0.25082 0.95953 0.89971
C6 C 0.21041 0.92645 0.92645
C7 C 0.74918 0.95953 0.10029
C6 C 0.78959 0.92645 0.07355
C7 C 0.74918 0.04047 0.89971
C6 C 0.78959 0.07355 0.92645
C7 C 0.25082 0.04047 0.10029
C6 C 0.21041 0.07355 0.07355
C7 C 0.45953 0.60029 0.74918
C7 C 0.45953 0.39971 0.25082
C7 C 0.54047 0.60029 0.25082
C7 C 0.54047 0.39971 0.74918
O2 O 0.78124 0.78124 0.13401
C3 C 0.75348 0.79287 0.02658
O3 O 0.75946 0.84115 0.05072
C5 C 0.74918 0.89971 0.04047
O2 O 0.21876 0.21876 0.13401
C3 C 0.24652 0.20713 0.02658
O3 O 0.24054 0.15885 0.05072
C5 C 0.25082 0.10029 0.04047
O2 O 0.21876 0.78124 0.86599
C3 C 0.24652 0.79287 0.97342
O3 O 0.24054 0.84115 0.94928
C5 C 0.25082 0.89971 0.95953
O2 O 0.78124 0.21876 0.86599
C3 C 0.75348 0.20713 0.97342
O3 O 0.75946 0.15885 0.94928
C5 C 0.74918 0.10029 0.95953
O2 O 0.63401 0.78124 0.28124
C3 C 0.52658 0.75348 0.29287
O3 O 0.55072 0.75946 0.34115
C5 C 0.54047 0.74918 0.39971
O2 O 0.63401 0.21876 0.71876
C3 C 0.52658 0.24652 0.70713
O3 O 0.55072 0.24054 0.65885
C5 C 0.54047 0.25082 0.60029
O2 O 0.36599 0.21876 0.28124
C3 C 0.47342 0.24652 0.29287
O3 O 0.44928 0.24054 0.34115
C5 C 0.45953 0.25082 0.39971
O2 O 0.36599 0.78124 0.71876
C3 C 0.47342 0.75348 0.70713
O3 O 0.44928 0.75946 0.65885
C5 C 0.45953 0.74918 0.60029
O2 O 0.78124 0.63401 0.28124
C4 C 0.79287 0.52658 0.25348
O2 O 0.21876 0.63401 0.71876
C4 C 0.20713 0.52658 0.74652
O2 O 0.78124 0.36599 0.71876
C4 C 0.79287 0.47342 0.74652
O2 O 0.21876 0.36599 0.28124
C4 C 0.20713 0.47342 0.25348
O2 O 0.78124 0.78124 -0.13401
O2 O 0.21876 0.21876 -0.13401
O2 O 0.78124 0.21876 1.13401
O2 O 0.21876 0.78124 1.13401
O2 O 0.78124 0.63401 0.71876
O2 O 0.21876 0.63401 0.28124
O2 O 0.21876 0.36599 0.71876
O2 O 0.78124 0.36599 0.28124
O2 O 0.63401 0.78124 0.71876
C7 C 0.54047 -0.10029 0.75082
O2 O 0.63401 0.21876 0.28124
C7 C 0.54047 1.10029 0.24918
O2 O 0.36599 0.78124 0.28124
C7 C 0.45953 -0.10029 0.24918
O2 O 0.36599 0.21876 0.71876
C7 C 0.45953 1.10029 0.75082
C4 C 0.24652 0.20713 -0.02658
C4 C 0.75348 0.79287 -0.02658
C4 C 0.75348 0.20713 1.02658
C4 C 0.24652 0.79287 1.02658
C4 C 0.47342 0.24652 0.70713
C4 C 0.47342 0.75348 0.29287
C4 C 0.52658 0.75348 0.70713
C4 C 0.52658 0.24652 0.29287
C3 C 0.20713 0.47342 0.74652
O3 O 0.15885 0.44928 0.74054
C5 C 0.10029 0.45953 0.75082
C3 C 0.79287 0.47342 0.25348
O3 O 0.84115 0.44928 0.25946
C5 C 0.89971 0.45953 0.24918
C3 C 0.20713 0.52658 0.25348
O3 O 0.15885 0.55072 0.25946
C5 C 0.10029 0.54047 0.24918
C3 C 0.79287 0.52658 0.74652
O3 O 0.84115 0.55072 0.74054
C5 C 0.89971 0.54047 0.75082
C7 C 0.10029 0.25082 0.04047
C7 C 0.89971 0.74918 0.04047
C7 C 0.10029 0.74918 0.95953
C7 C 0.89971 0.25082 0.95953
C7 C 0.25082 0.45953 0.39971
C7 C 0.74918 0.45953 0.60029
C7 C 0.74918 0.54047 0.39971
C7 C 0.25082 0.54047 0.60029
H1 H 0.54329 0.74387 0.1745
H1 H 0.45671 0.75613 0.3255
H1 H 0.54329 0.24387 0.3255
H1 H 0.45671 0.25613 0.1745
H1 H 0.54329 0.75613 0.6745
H1 H 0.45671 0.74387 0.8255
H1 H 0.45671 0.24387 0.6745
H1 H 0.54329 0.25613 0.8255
H4 H 0.4049 0.25703 0.99505
H4 H 0.36371 0.24916 0.95212
H4 H 0.41376 0.21604 0.95212
H3 H 0.40148 0.30714 0.90597
H3 H 0.44659 0.31281 0.94659
H2 H 0.49476 0.25416 0.90889
H2 H 0.44849 0.21537 0.90895
H4 H 0.5951 0.74297 0.99505
H4 H 0.63629 0.75084 0.95212
H4 H 0.58624 0.78396 0.95212
H3 H 0.59852 0.69286 0.90597
H3 H 0.55341 0.68719 0.94659
H2 H 0.50524 0.74584 0.90889
H2 H 0.55151 0.78463 0.90895
H2 H 0.55125 0.28436 0.58982
H2 H 0.50496 0.24566 0.59236
H3 H 0.55634 0.18625 0.55185
H3 H 0.5968 0.19399 0.5968
H4 H 0.61666 0.27555 0.56219
H4 H 0.62551 0.23455 0.51926
H4 H 0.57546 0.26767 0.51926
H2 H 0.44875 0.71564 0.58982
H2 H 0.49504 0.75434 0.59236
H3 H 0.44366 0.81375 0.55185
H3 H 0.4032 0.80601 0.5968
H4 H 0.38334 0.72445 0.56219
H4 H 0.37449 0.76545 0.51926
H4 H 0.42454 0.73233 0.51926
H4 H 0.4049 0.24297 0.49505
H4 H 0.41376 0.28396 0.45212
H4 H 0.36371 0.25084 0.45212
H3 H 0.44366 0.18625 0.44815
H3 H 0.4032 0.19399 0.4032
H2 H 0.44875 0.28436 0.41018
H2 H 0.49504 0.24566 0.40764
H2 H 0.55125 0.71564 0.41018
H2 H 0.50496 0.75434 0.40764
H3 H 0.55634 0.81375 0.44815
H3 H 0.5968 0.80601 0.4032
H4 H 0.5951 0.75703 0.49505
H4 H 0.58624 0.71604 0.45212
H4 H 0.63629 0.74916 0.45212
H4 H -0.0951 0.25703 0.49505
H4 H -0.13629 0.24916 0.45212
H4 H -0.08624 0.21604 0.45212
H3 H -0.05185 0.31375 0.44366
H3 H -0.0968 0.30601 0.4032
H2 H -0.05067 0.21488 0.40809
H2 H -0.00496 0.25434 0.40764
H4 H -0.11666 0.77555 0.56219
H4 H -0.07546 0.76767 0.51926
H4 H -0.12551 0.73455 0.51926
H3 H -0.05185 0.68625 0.55634
H3 H -0.0968 0.69399 0.5968
H2 H -0.05067 0.78512 0.59191
H2 H -0.00496 0.74566 0.59236
H4 H 0.88334 0.72445 0.06219
H4 H 0.87449 0.76545 0.01926
H4 H 0.92454 0.73233 0.01926
H3 H 0.90597 0.80714 0.09852
H3 H 0.94659 0.81281 0.05341
H2 H 0.99534 0.7534 0.0932
H2 H 0.94849 0.71537 0.09105
H1 H 0.95671 0.74387 0.3255
H1 H -0.04329 0.24387 0.1745
H1 H 0.95671 0.25613 0.6745
H1 H -0.04329 0.75613 0.8255
H2 H 0.99534 0.2466 0.9068
H2 H 0.94849 0.28463 0.90895
H3 H 0.90597 0.19286 0.90148
H3 H 0.94659 0.18719 0.94659
H4 H 0.9049 0.24297 0.99505
H4 H 0.91376 0.28396 0.95212
H4 H 0.86371 0.25084 0.95212
H4 H 0.0951 0.75703 0.99505
H4 H 0.08624 0.71604 0.95212
H4 H 0.13629 0.74916 0.95212
H3 H 0.09403 0.80714 0.90148
H3 H 0.05341 0.81281 0.94659
H2 H 0.00466 0.7534 0.9068
H2 H 0.05151 0.71537 0.90895
H1 H 1.04329 0.24387 0.8255
H1 H 0.04329 0.74387 0.6745
H2 H 1.05067 0.21488 0.59191
H2 H 1.00496 0.25434 0.59236
H3 H 1.05185 0.31375 0.55634
H3 H 1.0968 0.30601 0.5968
H4 H 1.11666 0.22445 0.56219
H4 H 1.07546 0.23233 0.51926
H4 H 1.12551 0.26545 0.51926
H4 H 1.0951 0.74297 0.49505
H4 H 1.13629 0.75084 0.45212
H4 H 1.08624 0.78396 0.45212
H3 H 1.05185 0.68625 0.44366
H3 H 1.0968 0.69399 0.4032
H2 H 1.05067 0.78512 0.40809
H2 H 1.00496 0.74566 0.40764
H1 H 1.04329 0.75613 0.1745
H1 H 0.04329 0.25613 0.3255
H2 H 0.00466 0.2466 0.0932
H2 H 0.05151 0.28463 0.09105
H3 H 0.09403 0.19286 0.09852
H3 H 0.05341 0.18719 0.05341
H4 H 0.11666 0.27555 0.06219
H4 H 0.12551 0.23455 0.01926
H4 H 0.07546 0.26767 0.01926
H2 H 0.49476 0.74584 0.09111
H2 H 0.44849 0.78463 0.09105
H3 H 0.40148 0.69286 0.09403
H3 H 0.44659 0.68719 0.05341
H4 H 0.38334 0.77555 0.06219
H4 H 0.42454 0.76767 0.01926
H4 H 0.37449 0.73455 0.01926
H4 H 0.61666 0.22445 0.06219
H4 H 0.57546 0.23233 0.01926
H4 H 0.62551 0.26545 0.01926
H3 H 0.59852 0.30714 0.09403
H3 H 0.55341 0.31281 0.05341
H2 H 0.50524 0.25416 0.09111
H2 H 0.55151 0.21537 0.09105
H4 H 0.27555 0.06219 0.11666
H4 H 0.23455 0.01926 0.12551
H4 H 0.26767 0.01926 0.07546
H3 H 0.18625 0.05185 0.05634
H3 H 0.19399 0.0968 0.0968
H2 H 0.28436 0.08982 0.05125
H2 H 0.24566 0.09236 0.00496
H2 H 0.78512 0.40809 1.05067
H2 H 0.74566 0.40764 1.00496
H3 H 0.68625 0.44366 1.05185
H3 H 0.69399 0.4032 1.0968
H4 H 0.74297 0.49505 1.0951
H4 H 0.75084 0.45212 1.13629
H4 H 0.78396 0.45212 1.08624
H4 H 0.22445 0.56219 1.11666
H4 H 0.23233 0.51926 1.07546
H4 H 0.26545 0.51926 1.12551
H3 H 0.31375 0.55634 1.05185
H3 H 0.30601 0.5968 1.0968
H2 H 0.21488 0.59191 1.05067
H2 H 0.25434 0.59236 1.00496
H1 H 0.24387 0.8255 1.04329
H1 H 0.25613 0.3255 0.04329
H1 H 0.75613 0.1745 1.04329
H1 H 0.74387 0.6745 0.04329
H2 H 0.71564 0.91018 0.05125
H2 H 0.75434 0.90764 0.00496
H3 H 0.81375 0.94815 0.05634
H3 H 0.80601 0.9032 0.0968
H4 H 0.75703 0.99505 0.0951
H4 H 0.71604 0.95212 0.08624
H4 H 0.74916 0.95212 0.13629
H4 H 0.25703 0.99505 0.4049
H4 H 0.24916 0.95212 0.36371
H4 H 0.21604 0.95212 0.41376
H3 H 0.30714 0.90597 0.40148
H3 H 0.31281 0.94659 0.44659
H2 H 0.25416 0.90889 0.49476
H2 H 0.21537 0.90895 0.44849
H1 H 0.25613 0.8255 0.54329
H1 H 0.75613 0.6745 0.54329
H1 H 0.24387 0.6745 0.45671
H2 H 0.74584 0.90889 0.50524
H2 H 0.78463 0.90895 0.55151
H3 H 0.69286 0.90597 0.59852
H3 H 0.68719 0.94659 0.55341
H4 H 0.74297 0.99505 0.5951
H4 H 0.75084 0.95212 0.63629
H4 H 0.78396 0.95212 0.58624
H4 H 0.24297 0.99505 0.9049
H4 H 0.28396 0.95212 0.91376
H4 H 0.25084 0.95212 0.86371
H3 H 0.18625 0.94815 0.94366
H3 H 0.19399 0.9032 0.9032
H2 H 0.28436 0.91018 0.94875
H2 H 0.24566 0.90764 0.99504
H1 H 0.75613 0.8255 -0.04329
H2 H 0.78512 0.59191 -0.05067
H2 H 0.74566 0.59236 -0.00496
H3 H 0.68625 0.55634 -0.05185
H3 H 0.69399 0.5968 -0.0968
H4 H 0.77555 0.56219 -0.11666
H4 H 0.76767 0.51926 -0.07546
H4 H 0.73455 0.51926 -0.12551
H4 H 0.25703 0.49505 -0.0951
H4 H 0.24916 0.45212 -0.13629
H4 H 0.21604 0.45212 -0.08624
H3 H 0.31375 0.44366 -0.05185
H3 H 0.30601 0.4032 -0.0968
H2 H 0.21488 0.40809 -0.05067
H2 H 0.25434 0.40764 -0.00496
H1 H 0.74387 0.3255 0.95671
H1 H 0.24387 0.1745 -0.04329
H1 H 0.1745 0.54329 0.74387
H1 H 0.32459 0.45504 0.75606
H2 H 0.2466 0.5932 0.50466
H2 H 0.28463 0.59105 0.55151
H3 H 0.19286 0.59852 0.59403
H3 H 0.18719 0.55341 0.55341
H4 H 0.27555 0.56219 0.61666
H4 H 0.23455 0.51926 0.62551
H4 H 0.26767 0.51926 0.57546
H2 H 0.7534 0.5932 0.49534
H2 H 0.71537 0.59105 0.44849
H3 H 0.80714 0.59852 0.40597
H3 H 0.81281 0.55341 0.44659
H4 H 0.72445 0.56219 0.38334
H4 H 0.76545 0.51926 0.37449
H4 H 0.73233 0.51926 0.42454
H4 H 0.24297 0.49505 0.4049
H4 H 0.28396 0.45212 0.41376
H4 H 0.25084 0.45212 0.36371
H3 H 0.19286 0.40148 0.40597
H3 H 0.18719 0.44659 0.44659
H2 H 0.2466 0.4068 0.49534
H2 H 0.28463 0.40895 0.44849
H2 H 0.7534 0.4068 0.50466
H2 H 0.71537 0.40895 0.55151
H3 H 0.80714 0.40148 0.59403
H3 H 0.81281 0.44659 0.55341
H4 H 0.75703 0.49505 0.5951
H4 H 0.71604 0.45212 0.58624
H4 H 0.74916 0.45212 0.63629
H2 H 0.25416 0.09111 0.50524
H2 H 0.21537 0.09105 0.55151
H3 H 0.30714 0.09403 0.59852
H3 H 0.31281 0.05341 0.55341
H4 H 0.22445 0.06219 0.61666
H4 H 0.23233 0.01926 0.57546
H4 H 0.26545 0.01926 0.62551
H2 H 0.74584 0.09111 0.49476
H2 H 0.78463 0.09105 0.44849
H3 H 0.69286 0.09403 0.40148
H3 H 0.68719 0.05341 0.44659
H4 H 0.77555 0.06219 0.38334
H4 H 0.76767 0.01926 0.42454
H4 H 0.73455 0.01926 0.37449
H1 H 0.25613 0.6745 0.95671
H4 H 0.45643 1.13672 0.74703
H4 H 0.44821 1.09046 0.78437
H4 H 0.49465 1.09046 0.74636
H3 H 0.44366 1.05185 0.68625
H3 H 0.4032 1.0968 0.69399
H2 H 0.40809 1.05067 0.78512
H2 H 0.40764 1.00496 0.74566
H2 H 0.08982 0.05125 0.28436
H2 H 0.09236 0.00496 0.24566
H3 H 0.05185 0.05634 0.18625
H3 H 0.0968 0.0968 0.19399
H4 H 0.04357 0.13672 0.24703
H4 H 0.00535 0.09046 0.24636
H4 H 0.05179 0.09046 0.28437
H4 H 0.02356 0.42496 0.77148
H4 H 0.01535 0.3787 0.73414
H4 H 0.06179 0.3787 0.77215
H3 H 0.09403 0.40148 0.69286
H3 H 0.05341 0.44659 0.68719
H2 H 0.09111 0.49476 0.74584
H2 H 0.09105 0.44849 0.78463
H2 H 0.09111 0.50524 0.25416
H2 H 0.09105 0.55151 0.21537
H3 H 0.09403 0.59852 0.30714
H3 H 0.05341 0.55341 0.31281
H4 H 0.04357 0.63672 0.25297
H4 H 0.05179 0.59046 0.21563
H4 H 0.00535 0.59046 0.25364
H4 H 0.02356 0.92496 0.72852
H4 H 0.06179 0.8787 0.72785
H4 H 0.01535 0.8787 0.76586
H3 H 0.05185 0.94366 0.81375
H3 H 0.0968 0.9032 0.80601
H2 H 0.08982 0.94875 0.71564
H2 H 0.09236 0.99504 0.75434
H2 H 0.40809 -0.05067 0.21488
H2 H 0.40764 -0.00496 0.25434
H3 H 0.44366 -0.05185 0.31375
H3 H 0.4032 -0.0968 0.30601
H4 H 0.47644 -0.07504 0.22852
H4 H 0.48465 -0.1213 0.26586
H4 H 0.43821 -0.1213 0.22785
H4 H 0.52356 -0.07504 0.77148
H4 H 0.51535 -0.1213 0.73414
H4 H 0.56179 -0.1213 0.77215
H3 H 0.55634 -0.05185 0.68625
H3 H 0.5968 -0.0968 0.69399
H2 H 0.59191 -0.05067 0.78512
H2 H 0.59236 -0.00496 0.74566
H2 H 0.91018 0.94875 0.28436
H2 H 0.90764 0.99504 0.24566
H3 H 0.94815 0.94366 0.18625
H3 H 0.9032 0.9032 0.19399
H4 H 0.97644 0.92496 0.27148
H4 H 0.93821 0.8787 0.27215
H4 H 0.98465 0.8787 0.23414
H4 H 0.95643 0.63672 0.74703
H4 H 0.94821 0.59046 0.78437
H4 H 0.99465 0.59046 0.74636
H3 H 0.90597 0.59852 0.69286
H3 H 0.94659 0.55341 0.68719
H2 H 0.90889 0.50524 0.74584
H2 H 0.90895 0.55151 0.78463
H2 H 0.90889 0.49476 0.25416
H2 H 0.90895 0.44849 0.21537
H3 H 0.90597 0.40148 0.30714
H3 H 0.94659 0.44659 0.31281
H4 H 0.99534 0.4068 0.2534
H4 H 0.94849 0.40895 0.21537
H4 H 0.95643 0.13672 0.75297
H4 H 0.99465 0.09046 0.75364
H4 H 0.94821 0.09046 0.71563
H3 H 0.94815 0.05634 0.81375
H3 H 0.9032 0.0968 0.80601
H2 H 0.91018 0.05125 0.71564
H2 H 0.90764 0.00496 0.75434
H2 H 0.59191 1.05067 0.21488
H2 H 0.59236 1.00496 0.25434
H3 H 0.55634 1.05185 0.31375
H3 H 0.5968 1.0968 0.30601
H4 H 0.54357 1.13672 0.25297
H4 H 0.55179 1.09046 0.21563
H4 H 0.50535 1.09046 0.25364
H4 H 0.52356 0.42496 0.72852
H4 H 0.56179 0.3787 0.72785
H4 H 0.51535 0.3787 0.76586
H3 H 0.59852 0.40597 0.80714
H3 H 0.55341 0.44659 0.81281
H2 H 0.5932 0.49534 0.7534
H2 H 0.59105 0.44849 0.71537
H2 H 0.5932 0.50466 0.2466
H2 H 0.59105 0.55151 0.28463
H3 H 0.59852 0.59403 0.19286
H3 H 0.55341 0.55341 0.18719
H4 H 0.54357 0.63672 0.24703
H4 H 0.50535 0.59046 0.24636
H4 H 0.55179 0.59046 0.28437
H4 H 0.45643 0.63672 0.75297
H4 H 0.49465 0.59046 0.75364
H4 H 0.44821 0.59046 0.71563
H3 H 0.40148 0.59403 0.80714
H3 H 0.44659 0.55341 0.81281
H2 H 0.4068 0.50466 0.7534
H2 H 0.40895 0.55151 0.71537
H2 H 0.4068 0.49534 0.2466
H2 H 0.40895 0.44849 0.28463
H3 H 0.40148 0.40597 0.19286
H3 H 0.44659 0.44659 0.18719
H4 H 0.47644 0.42496 0.27148
H4 H 0.43821 0.3787 0.27215
H4 H 0.48465 0.3787 0.23414
H1 H 0.1745 1.04329 0.75613
H1 H 0.3255 0.04329 0.25613
H1 H 0.8255 1.04329 0.24387
H1 H 0.6745 0.04329 0.74387
H1 H 0.8255 -0.04329 0.75613
H1 H 0.6745 0.95671 0.25613
H1 H 0.3255 0.95671 0.74387
H1 H 0.1745 -0.04329 0.24387
H1 H 0.8255 0.54329 0.25613
H1 H 0.67541 0.45504 0.24394
H1 H 0.67541 0.54496 0.75606
H1 H 0.8255 0.45671 0.74387
H1 H 0.1745 0.45671 0.25613
H1 H 0.32459 0.54496 0.24394
H1 H 0.75613 0.3255 0.45671
H1 H 0.74387 0.1745 0.54329
H1 H 0.74387 0.8255 0.45671
H1 H 0.24387 0.3255 0.54329
H1 H 0.25613 0.1745 0.45671
H2 H 0.71564 0.08982 0.94875
H2 H 0.75434 0.09236 0.99504
H3 H 0.81375 0.05185 0.94366
H3 H 0.80601 0.0968 0.9032
H4 H 0.72445 0.06219 0.88334
H4 H 0.76545 0.01926 0.87449
H4 H 0.73233 0.01926 0.92454
Zn1 Zn 0.29332 0.29332 -0.20668
O2 O 0.28124 0.28124 0.86599
Zn1 Zn 0.70668 0.70668 -0.20668
O2 O 0.71876 0.71876 0.86599
Zn1 Zn 0.29332 0.70668 1.20668
O2 O 0.28124 0.71876 0.13401
Zn1 Zn 0.70668 0.29332 1.20668
O2 O 0.71876 0.28124 0.13401
Zn1 Zn 0.29332 1.20668 0.70668
O2 O 0.28124 0.13401 0.71876
Zn1 Zn 0.70668 1.20668 0.29332
O2 O 0.71876 0.13401 0.28124
Zn1 Zn 0.70668 -0.20668 0.70668
O2 O 0.71876 0.86599 0.71876
Zn1 Zn 0.29332 -0.20668 0.29332
O2 O 0.28124 0.86599 0.28124
Zn1 Zn 1.20668 0.29332 0.70668
O2 O 0.13401 0.28124 0.71876
Zn1 Zn 1.20668 0.70668 0.29332
O2 O 0.13401 0.71876 0.28124
Zn1 Zn -0.20668 0.29332 0.29332
O2 O 0.86599 0.28124 0.28124
Zn1 Zn -0.20668 0.70668 0.70668
O2 O 0.86599 0.71876 0.71876
Zn1 Zn 0.20668 -0.20668 0.20668
Zn1 Zn 0.20668 0.79332 1.20668
Zn1 Zn 1.20668 0.79332 0.20668
O2 O 0.13401 0.78124 0.21876
Zn1 Zn 0.20668 0.20668 -0.20668
Zn1 Zn 0.20668 1.20668 0.79332
Zn1 Zn 1.20668 0.20668 0.79332
O2 O 0.13401 0.21876 0.78124
Zn1 Zn -0.20668 0.79332 0.79332
Zn1 Zn 0.79332 -0.20668 0.79332
Zn1 Zn 0.79332 0.79332 -0.20668
O2 O 0.86599 0.78124 0.78124
Zn1 Zn -0.20668 0.20668 0.20668
Zn1 Zn 0.79332 0.20668 1.20668
Zn1 Zn 0.79332 1.20668 0.20668
O2 O 0.86599 0.21876 0.21876
O2 O 0.78124 0.13401 0.21876
O2 O 0.21876 0.13401 0.78124
O2 O 0.21876 0.86599 0.21876
O2 O 0.78124 0.86599 0.78124
O2 O 0.78124 0.78124 0.86599
O2 O 0.21876 0.21876 0.86599
O2 O 0.78124 0.21876 0.13401
O2 O 0.21876 0.78124 0.13401
H4 H 0.94928 0.34115 0.25946

#END
