
#######################################################################
#
#                 Cambridge Crystallographic Data Centre
#                                CCDC 
#
#######################################################################
#
# If this CIF has been generated from an entry in the Cambridge 
# Structural Database, then it will include bibliographic, chemical, 
# crystal, experimental, refinement or atomic coordinate data resulting 
# from the CCDC's data processing and validation procedures.
#
#######################################################################

data_IRMOF-7
_symmetry_cell_setting           triclinic
_symmetry_space_group_name_H-M   'P 1'
_symmetry_Int_Tables_number      1
_space_group_name_Hall           'P 1'
loop_
_symmetry_equiv_pos_site_id
_symmetry_equiv_pos_as_xyz
1 x,y,z
_cell_length_a                   25.8288
_cell_length_b                   25.8288
_cell_length_c                   25.8288
_cell_angle_alpha                90
_cell_angle_beta                 90
_cell_angle_gamma                90
_cell_volume                     17231.1
loop_
_atom_site_label
_atom_site_type_symbol
_atom_site_fract_x
_atom_site_fract_y
_atom_site_fract_z
Zn1 Zn 0.20669 0.20669 0.20669
O1 O 0.25 0.25 0.25
O2 O 0.13161 0.22048 0.22048
C1 C 0.10706 0.25 0.25
C2 C 0.05047 0.25 0.25
C3 C 0.02379 0.20261 0.25
C4 C 0.05194 0.15632 0.25
H1 H 0.08793 0.15754 0.25
C5 C 0.02708 0.10836 0.25
H2 H 0.04579 0.0776 0.25
Zn1 Zn 0.29331 0.29331 0.20669
O2 O 0.36839 0.27952 0.22048
C1 C 0.39294 0.25 0.25
C2 C 0.44953 0.25 0.25
C3 C 0.47621 0.29739 0.25
Zn1 Zn 0.29331 0.20669 0.29331
O2 O 0.36839 0.22048 0.27952
C3 C 0.47621 0.20261 0.25
C4 C 0.44806 0.15632 0.25
H1 H 0.41207 0.15754 0.25
C5 C 0.47292 0.10836 0.25
H2 H 0.45421 0.0776 0.25
Zn1 Zn 0.20669 0.29331 0.29331
O2 O 0.13161 0.27952 0.27952
C3 C 0.02379 0.29739 0.25
O2 O 0.22048 0.13161 0.22048
C1 C 0.25 0.10706 0.25
C2 C 0.25 0.05047 0.25
C3 C 0.25 0.02379 0.20261
O2 O 0.22048 0.36839 0.27952
C1 C 0.25 0.39294 0.25
C2 C 0.25 0.44953 0.25
C3 C 0.25 0.47621 0.29739
C4 C 0.25 0.44806 0.34368
H1 H 0.25 0.41207 0.34246
C5 C 0.25 0.47292 0.39164
H2 H 0.25 0.45421 0.4224
O2 O 0.27952 0.36839 0.22048
C3 C 0.25 0.47621 0.20261
O2 O 0.27952 0.13161 0.27952
C3 C 0.25 0.02379 0.29739
C4 C 0.25 0.05194 0.34368
H1 H 0.25 0.08793 0.34246
C5 C 0.25 0.02708 0.39164
H2 H 0.25 0.04579 0.4224
O2 O 0.22048 0.22048 0.13161
C1 C 0.25 0.25 0.10706
C2 C 0.25 0.25 0.05047
C3 C 0.20261 0.25 0.02379
C4 C 0.15632 0.25 0.05194
H1 H 0.15754 0.25 0.08793
C5 C 0.10836 0.25 0.02708
H2 H 0.0776 0.25 0.04579
O2 O 0.27952 0.22048 0.36839
C1 C 0.25 0.25 0.39294
C2 C 0.25 0.25 0.44953
C3 C 0.29739 0.25 0.47621
O2 O 0.22048 0.27952 0.36839
C3 C 0.20261 0.25 0.47621
C4 C 0.15632 0.25 0.44806
H1 H 0.15754 0.25 0.41207
C5 C 0.10836 0.25 0.47292
H2 H 0.0776 0.25 0.45421
O2 O 0.27952 0.27952 0.13161
C3 C 0.29739 0.25 0.02379
H3 H 0.25 0.45748 0.17096
H3 H 0.25 0.04252 0.17096
H3 H 0.32904 0.25 0.04252
H3 H 0.32904 0.25 0.45748
H3 H 0.04252 0.32904 0.25
H3 H 0.45748 0.32904 0.25
Zn1 Zn 0.20669 0.20669 0.70669
O1 O 0.25 0.25 0.75
O2 O 0.13161 0.22048 0.72048
C1 C 0.10706 0.25 0.75
C2 C 0.05047 0.25 0.75
C3 C 0.02379 0.20261 0.75
C4 C 0.05194 0.15632 0.75
H1 H 0.08793 0.15754 0.75
C5 C 0.02708 0.10836 0.75
H2 H 0.04579 0.0776 0.75
Zn1 Zn 0.29331 0.29331 0.70669
O2 O 0.36839 0.27952 0.72048
C1 C 0.39294 0.25 0.75
C2 C 0.44953 0.25 0.75
C3 C 0.47621 0.29739 0.75
Zn1 Zn 0.29331 0.20669 0.79331
O2 O 0.36839 0.22048 0.77952
C3 C 0.47621 0.20261 0.75
C4 C 0.44806 0.15632 0.75
H1 H 0.41207 0.15754 0.75
C5 C 0.47292 0.10836 0.75
H2 H 0.45421 0.0776 0.75
Zn1 Zn 0.20669 0.29331 0.79331
O2 O 0.13161 0.27952 0.77952
C3 C 0.02379 0.29739 0.75
O2 O 0.22048 0.13161 0.72048
C1 C 0.25 0.10706 0.75
C2 C 0.25 0.05047 0.75
C3 C 0.25 0.02379 0.70261
O2 O 0.22048 0.36839 0.77952
C1 C 0.25 0.39294 0.75
C2 C 0.25 0.44953 0.75
C3 C 0.25 0.47621 0.79739
C4 C 0.25 0.44806 0.84368
H1 H 0.25 0.41207 0.84246
C5 C 0.25 0.47292 0.89164
H2 H 0.25 0.45421 0.9224
O2 O 0.27952 0.36839 0.72048
C3 C 0.25 0.47621 0.70261
O2 O 0.27952 0.13161 0.77952
C3 C 0.25 0.02379 0.79739
C4 C 0.25 0.05194 0.84368
H1 H 0.25 0.08793 0.84246
C5 C 0.25 0.02708 0.89164
H2 H 0.25 0.04579 0.9224
O2 O 0.22048 0.22048 0.63161
C1 C 0.25 0.25 0.60706
C2 C 0.25 0.25 0.55047
C3 C 0.20261 0.25 0.52379
C4 C 0.15632 0.25 0.55194
H1 H 0.15754 0.25 0.58793
C5 C 0.10836 0.25 0.52708
H2 H 0.0776 0.25 0.54579
O2 O 0.27952 0.22048 -0.13161
C1 C 0.25 0.25 -0.10706
C2 C 0.25 0.25 -0.05047
C3 C 0.29739 0.25 -0.02379
O2 O 0.22048 0.27952 -0.13161
C3 C 0.20261 0.25 -0.02379
C4 C 0.15632 0.25 -0.05194
H1 H 0.15754 0.25 -0.08793
C5 C 0.10836 0.25 -0.02708
H2 H 0.0776 0.25 -0.04579
O2 O 0.27952 0.27952 0.63161
C3 C 0.29739 0.25 0.52379
H3 H 0.25 0.45748 0.67096
H3 H 0.25 0.04252 0.67096
H3 H 0.32904 0.25 0.54252
H3 H 0.32904 0.25 -0.04252
H3 H 0.04252 0.32904 0.75
H3 H 0.45748 0.32904 0.75
Zn1 Zn 0.20669 0.70669 0.20669
O1 O 0.25 0.75 0.25
O2 O 0.13161 0.72048 0.22048
C1 C 0.10706 0.75 0.25
C2 C 0.05047 0.75 0.25
C3 C 0.02379 0.70261 0.25
C4 C 0.05194 0.65632 0.25
H1 H 0.08793 0.65754 0.25
C5 C 0.02708 0.60836 0.25
H2 H 0.04579 0.5776 0.25
Zn1 Zn 0.29331 0.79331 0.20669
O2 O 0.36839 0.77952 0.22048
C1 C 0.39294 0.75 0.25
C2 C 0.44953 0.75 0.25
C3 C 0.47621 0.79739 0.25
Zn1 Zn 0.29331 0.70669 0.29331
O2 O 0.36839 0.72048 0.27952
C3 C 0.47621 0.70261 0.25
C4 C 0.44806 0.65632 0.25
H1 H 0.41207 0.65754 0.25
C5 C 0.47292 0.60836 0.25
H2 H 0.45421 0.5776 0.25
Zn1 Zn 0.20669 0.79331 0.29331
O2 O 0.13161 0.77952 0.27952
C3 C 0.02379 0.79739 0.25
O2 O 0.22048 0.63161 0.22048
C1 C 0.25 0.60706 0.25
C2 C 0.25 0.55047 0.25
C3 C 0.25 0.52379 0.20261
O2 O 0.22048 -0.13161 0.27952
C1 C 0.25 -0.10706 0.25
C2 C 0.25 -0.05047 0.25
C3 C 0.25 -0.02379 0.29739
C4 C 0.25 -0.05194 0.34368
H1 H 0.25 -0.08793 0.34246
C5 C 0.25 -0.02708 0.39164
H2 H 0.25 -0.04579 0.4224
O2 O 0.27952 -0.13161 0.22048
C3 C 0.25 -0.02379 0.20261
O2 O 0.27952 0.63161 0.27952
C3 C 0.25 0.52379 0.29739
C4 C 0.25 0.55194 0.34368
H1 H 0.25 0.58793 0.34246
C5 C 0.25 0.52708 0.39164
H2 H 0.25 0.54579 0.4224
O2 O 0.22048 0.72048 0.13161
C1 C 0.25 0.75 0.10706
C2 C 0.25 0.75 0.05047
C3 C 0.20261 0.75 0.02379
C4 C 0.15632 0.75 0.05194
H1 H 0.15754 0.75 0.08793
C5 C 0.10836 0.75 0.02708
H2 H 0.0776 0.75 0.04579
O2 O 0.27952 0.72048 0.36839
C1 C 0.25 0.75 0.39294
C2 C 0.25 0.75 0.44953
C3 C 0.29739 0.75 0.47621
O2 O 0.22048 0.77952 0.36839
C3 C 0.20261 0.75 0.47621
C4 C 0.15632 0.75 0.44806
H1 H 0.15754 0.75 0.41207
C5 C 0.10836 0.75 0.47292
H2 H 0.0776 0.75 0.45421
O2 O 0.27952 0.77952 0.13161
C3 C 0.29739 0.75 0.02379
H3 H 0.25 -0.04252 0.17096
H3 H 0.25 0.54252 0.17096
H3 H 0.32904 0.75 0.04252
H3 H 0.32904 0.75 0.45748
H3 H 0.04252 0.82904 0.25
H3 H 0.45748 0.82904 0.25
Zn1 Zn 0.20669 0.70669 0.70669
O1 O 0.25 0.75 0.75
O2 O 0.13161 0.72048 0.72048
C1 C 0.10706 0.75 0.75
C2 C 0.05047 0.75 0.75
C3 C 0.02379 0.70261 0.75
C4 C 0.05194 0.65632 0.75
H1 H 0.08793 0.65754 0.75
C5 C 0.02708 0.60836 0.75
H2 H 0.04579 0.5776 0.75
Zn1 Zn 0.29331 0.79331 0.70669
O2 O 0.36839 0.77952 0.72048
C1 C 0.39294 0.75 0.75
C2 C 0.44953 0.75 0.75
C3 C 0.47621 0.79739 0.75
Zn1 Zn 0.29331 0.70669 0.79331
O2 O 0.36839 0.72048 0.77952
C3 C 0.47621 0.70261 0.75
C4 C 0.44806 0.65632 0.75
H1 H 0.41207 0.65754 0.75
C5 C 0.47292 0.60836 0.75
H2 H 0.45421 0.5776 0.75
Zn1 Zn 0.20669 0.79331 0.79331
O2 O 0.13161 0.77952 0.77952
C3 C 0.02379 0.79739 0.75
O2 O 0.22048 0.63161 0.72048
C1 C 0.25 0.60706 0.75
C2 C 0.25 0.55047 0.75
C3 C 0.25 0.52379 0.70261
O2 O 0.22048 -0.13161 0.77952
C1 C 0.25 -0.10706 0.75
C2 C 0.25 -0.05047 0.75
C3 C 0.25 -0.02379 0.79739
C4 C 0.25 -0.05194 0.84368
H1 H 0.25 -0.08793 0.84246
C5 C 0.25 -0.02708 0.89164
H2 H 0.25 -0.04579 0.9224
O2 O 0.27952 -0.13161 0.72048
C3 C 0.25 -0.02379 0.70261
O2 O 0.27952 0.63161 0.77952
C3 C 0.25 0.52379 0.79739
C4 C 0.25 0.55194 0.84368
H1 H 0.25 0.58793 0.84246
C5 C 0.25 0.52708 0.89164
H2 H 0.25 0.54579 0.9224
O2 O 0.22048 0.72048 0.63161
C1 C 0.25 0.75 0.60706
C2 C 0.25 0.75 0.55047
C3 C 0.20261 0.75 0.52379
C4 C 0.15632 0.75 0.55194
H1 H 0.15754 0.75 0.58793
C5 C 0.10836 0.75 0.52708
H2 H 0.0776 0.75 0.54579
O2 O 0.27952 0.72048 -0.13161
C1 C 0.25 0.75 -0.10706
C2 C 0.25 0.75 -0.05047
C3 C 0.29739 0.75 -0.02379
O2 O 0.22048 0.77952 -0.13161
C3 C 0.20261 0.75 -0.02379
C4 C 0.15632 0.75 -0.05194
H1 H 0.15754 0.75 -0.08793
C5 C 0.10836 0.75 -0.02708
H2 H 0.0776 0.75 -0.04579
O2 O 0.27952 0.77952 0.63161
C3 C 0.29739 0.75 0.52379
H3 H 0.25 -0.04252 0.67096
H3 H 0.25 0.54252 0.67096
H3 H 0.32904 0.75 0.54252
H3 H 0.32904 0.75 -0.04252
H3 H 0.04252 0.82904 0.75
H3 H 0.45748 0.82904 0.75
Zn1 Zn 0.70669 0.20669 0.20669
O1 O 0.75 0.25 0.25
O2 O 0.63161 0.22048 0.22048
C1 C 0.60706 0.25 0.25
C2 C 0.55047 0.25 0.25
C3 C 0.52379 0.20261 0.25
C4 C 0.55194 0.15632 0.25
H1 H 0.58793 0.15754 0.25
C5 C 0.52708 0.10836 0.25
H2 H 0.54579 0.0776 0.25
Zn1 Zn 0.79331 0.29331 0.20669
O2 O -0.13161 0.27952 0.22048
C1 C -0.10706 0.25 0.25
C2 C -0.05047 0.25 0.25
C3 C -0.02379 0.29739 0.25
Zn1 Zn 0.79331 0.20669 0.29331
O2 O -0.13161 0.22048 0.27952
C3 C -0.02379 0.20261 0.25
C4 C -0.05194 0.15632 0.25
H1 H -0.08793 0.15754 0.25
C5 C -0.02708 0.10836 0.25
H2 H -0.04579 0.0776 0.25
Zn1 Zn 0.70669 0.29331 0.29331
O2 O 0.63161 0.27952 0.27952
C3 C 0.52379 0.29739 0.25
O2 O 0.72048 0.13161 0.22048
C1 C 0.75 0.10706 0.25
C2 C 0.75 0.05047 0.25
C3 C 0.75 0.02379 0.20261
O2 O 0.72048 0.36839 0.27952
C1 C 0.75 0.39294 0.25
C2 C 0.75 0.44953 0.25
C3 C 0.75 0.47621 0.29739
C4 C 0.75 0.44806 0.34368
H1 H 0.75 0.41207 0.34246
C5 C 0.75 0.47292 0.39164
H2 H 0.75 0.45421 0.4224
O2 O 0.77952 0.36839 0.22048
C3 C 0.75 0.47621 0.20261
O2 O 0.77952 0.13161 0.27952
C3 C 0.75 0.02379 0.29739
C4 C 0.75 0.05194 0.34368
H1 H 0.75 0.08793 0.34246
C5 C 0.75 0.02708 0.39164
H2 H 0.75 0.04579 0.4224
O2 O 0.72048 0.22048 0.13161
C1 C 0.75 0.25 0.10706
C2 C 0.75 0.25 0.05047
C3 C 0.70261 0.25 0.02379
C4 C 0.65632 0.25 0.05194
H1 H 0.65754 0.25 0.08793
C5 C 0.60836 0.25 0.02708
H2 H 0.5776 0.25 0.04579
O2 O 0.77952 0.22048 0.36839
C1 C 0.75 0.25 0.39294
C2 C 0.75 0.25 0.44953
C3 C 0.79739 0.25 0.47621
O2 O 0.72048 0.27952 0.36839
C3 C 0.70261 0.25 0.47621
C4 C 0.65632 0.25 0.44806
H1 H 0.65754 0.25 0.41207
C5 C 0.60836 0.25 0.47292
H2 H 0.5776 0.25 0.45421
O2 O 0.77952 0.27952 0.13161
C3 C 0.79739 0.25 0.02379
H3 H 0.75 0.45748 0.17096
H3 H 0.75 0.04252 0.17096
H3 H 0.82904 0.25 0.04252
H3 H 0.82904 0.25 0.45748
H3 H 0.54252 0.32904 0.25
H3 H -0.04252 0.32904 0.25
Zn1 Zn 0.70669 0.20669 0.70669
O1 O 0.75 0.25 0.75
O2 O 0.63161 0.22048 0.72048
C1 C 0.60706 0.25 0.75
C2 C 0.55047 0.25 0.75
C3 C 0.52379 0.20261 0.75
C4 C 0.55194 0.15632 0.75
H1 H 0.58793 0.15754 0.75
C5 C 0.52708 0.10836 0.75
H2 H 0.54579 0.0776 0.75
Zn1 Zn 0.79331 0.29331 0.70669
O2 O -0.13161 0.27952 0.72048
C1 C -0.10706 0.25 0.75
C2 C -0.05047 0.25 0.75
C3 C -0.02379 0.29739 0.75
Zn1 Zn 0.79331 0.20669 0.79331
O2 O -0.13161 0.22048 0.77952
C3 C -0.02379 0.20261 0.75
C4 C -0.05194 0.15632 0.75
H1 H -0.08793 0.15754 0.75
C5 C -0.02708 0.10836 0.75
H2 H -0.04579 0.0776 0.75
Zn1 Zn 0.70669 0.29331 0.79331
O2 O 0.63161 0.27952 0.77952
C3 C 0.52379 0.29739 0.75
O2 O 0.72048 0.13161 0.72048
C1 C 0.75 0.10706 0.75
C2 C 0.75 0.05047 0.75
C3 C 0.75 0.02379 0.70261
O2 O 0.72048 0.36839 0.77952
C1 C 0.75 0.39294 0.75
C2 C 0.75 0.44953 0.75
C3 C 0.75 0.47621 0.79739
C4 C 0.75 0.44806 0.84368
H1 H 0.75 0.41207 0.84246
C5 C 0.75 0.47292 0.89164
H2 H 0.75 0.45421 0.9224
O2 O 0.77952 0.36839 0.72048
C3 C 0.75 0.47621 0.70261
O2 O 0.77952 0.13161 0.77952
C3 C 0.75 0.02379 0.79739
C4 C 0.75 0.05194 0.84368
H1 H 0.75 0.08793 0.84246
C5 C 0.75 0.02708 0.89164
H2 H 0.75 0.04579 0.9224
O2 O 0.72048 0.22048 0.63161
C1 C 0.75 0.25 0.60706
C2 C 0.75 0.25 0.55047
C3 C 0.70261 0.25 0.52379
C4 C 0.65632 0.25 0.55194
H1 H 0.65754 0.25 0.58793
C5 C 0.60836 0.25 0.52708
H2 H 0.5776 0.25 0.54579
O2 O 0.77952 0.22048 -0.13161
C1 C 0.75 0.25 -0.10706
C2 C 0.75 0.25 -0.05047
C3 C 0.79739 0.25 -0.02379
O2 O 0.72048 0.27952 -0.13161
C3 C 0.70261 0.25 -0.02379
C4 C 0.65632 0.25 -0.05194
H1 H 0.65754 0.25 -0.08793
C5 C 0.60836 0.25 -0.02708
H2 H 0.5776 0.25 -0.04579
O2 O 0.77952 0.27952 0.63161
C3 C 0.79739 0.25 0.52379
H3 H 0.75 0.45748 0.67096
H3 H 0.75 0.04252 0.67096
H3 H 0.82904 0.25 0.54252
H3 H 0.82904 0.25 -0.04252
H3 H 0.54252 0.32904 0.75
H3 H -0.04252 0.32904 0.75
Zn1 Zn 0.70669 0.70669 0.20669
O1 O 0.75 0.75 0.25
O2 O 0.63161 0.72048 0.22048
C1 C 0.60706 0.75 0.25
C2 C 0.55047 0.75 0.25
C3 C 0.52379 0.70261 0.25
C4 C 0.55194 0.65632 0.25
H1 H 0.58793 0.65754 0.25
C5 C 0.52708 0.60836 0.25
H2 H 0.54579 0.5776 0.25
Zn1 Zn 0.79331 0.79331 0.20669
O2 O -0.13161 0.77952 0.22048
C1 C -0.10706 0.75 0.25
C2 C -0.05047 0.75 0.25
C3 C -0.02379 0.79739 0.25
Zn1 Zn 0.79331 0.70669 0.29331
O2 O -0.13161 0.72048 0.27952
C3 C -0.02379 0.70261 0.25
C4 C -0.05194 0.65632 0.25
H1 H -0.08793 0.65754 0.25
C5 C -0.02708 0.60836 0.25
H2 H -0.04579 0.5776 0.25
Zn1 Zn 0.70669 0.79331 0.29331
O2 O 0.63161 0.77952 0.27952
C3 C 0.52379 0.79739 0.25
O2 O 0.72048 0.63161 0.22048
C1 C 0.75 0.60706 0.25
C2 C 0.75 0.55047 0.25
C3 C 0.75 0.52379 0.20261
O2 O 0.72048 -0.13161 0.27952
C1 C 0.75 -0.10706 0.25
C2 C 0.75 -0.05047 0.25
C3 C 0.75 -0.02379 0.29739
C4 C 0.75 -0.05194 0.34368
H1 H 0.75 -0.08793 0.34246
C5 C 0.75 -0.02708 0.39164
H2 H 0.75 -0.04579 0.4224
O2 O 0.77952 -0.13161 0.22048
C3 C 0.75 -0.02379 0.20261
O2 O 0.77952 0.63161 0.27952
C3 C 0.75 0.52379 0.29739
C4 C 0.75 0.55194 0.34368
H1 H 0.75 0.58793 0.34246
C5 C 0.75 0.52708 0.39164
H2 H 0.75 0.54579 0.4224
O2 O 0.72048 0.72048 0.13161
C1 C 0.75 0.75 0.10706
C2 C 0.75 0.75 0.05047
C3 C 0.70261 0.75 0.02379
C4 C 0.65632 0.75 0.05194
H1 H 0.65754 0.75 0.08793
C5 C 0.60836 0.75 0.02708
H2 H 0.5776 0.75 0.04579
O2 O 0.77952 0.72048 0.36839
C1 C 0.75 0.75 0.39294
C2 C 0.75 0.75 0.44953
C3 C 0.79739 0.75 0.47621
O2 O 0.72048 0.77952 0.36839
C3 C 0.70261 0.75 0.47621
C4 C 0.65632 0.75 0.44806
H1 H 0.65754 0.75 0.41207
C5 C 0.60836 0.75 0.47292
H2 H 0.5776 0.75 0.45421
O2 O 0.77952 0.77952 0.13161
C3 C 0.79739 0.75 0.02379
H3 H 0.75 -0.04252 0.17096
H3 H 0.75 0.54252 0.17096
H3 H 0.82904 0.75 0.04252
H3 H 0.82904 0.75 0.45748
H3 H 0.54252 0.82904 0.25
H3 H -0.04252 0.82904 0.25
Zn1 Zn 0.70669 0.70669 0.70669
O1 O 0.75 0.75 0.75
O2 O 0.63161 0.72048 0.72048
C1 C 0.60706 0.75 0.75
C2 C 0.55047 0.75 0.75
C3 C 0.52379 0.70261 0.75
C4 C 0.55194 0.65632 0.75
H1 H 0.58793 0.65754 0.75
C5 C 0.52708 0.60836 0.75
H2 H 0.54579 0.5776 0.75
Zn1 Zn 0.79331 0.79331 0.70669
O2 O -0.13161 0.77952 0.72048
C1 C -0.10706 0.75 0.75
C2 C -0.05047 0.75 0.75
C3 C -0.02379 0.79739 0.75
Zn1 Zn 0.79331 0.70669 0.79331
O2 O -0.13161 0.72048 0.77952
C3 C -0.02379 0.70261 0.75
C4 C -0.05194 0.65632 0.75
H1 H -0.08793 0.65754 0.75
C5 C -0.02708 0.60836 0.75
H2 H -0.04579 0.5776 0.75
Zn1 Zn 0.70669 0.79331 0.79331
O2 O 0.63161 0.77952 0.77952
C3 C 0.52379 0.79739 0.75
O2 O 0.72048 0.63161 0.72048
C1 C 0.75 0.60706 0.75
C2 C 0.75 0.55047 0.75
C3 C 0.75 0.52379 0.70261
O2 O 0.72048 -0.13161 0.77952
C1 C 0.75 -0.10706 0.75
C2 C 0.75 -0.05047 0.75
C3 C 0.75 -0.02379 0.79739
C4 C 0.75 -0.05194 0.84368
H1 H 0.75 -0.08793 0.84246
C5 C 0.75 -0.02708 0.89164
H2 H 0.75 -0.04579 0.9224
O2 O 0.77952 -0.13161 0.72048
C3 C 0.75 -0.02379 0.70261
O2 O 0.77952 0.63161 0.77952
C3 C 0.75 0.52379 0.79739
C4 C 0.75 0.55194 0.84368
H1 H 0.75 0.58793 0.84246
C5 C 0.75 0.52708 0.89164
H2 H 0.75 0.54579 0.9224
O2 O 0.72048 0.72048 0.63161
C1 C 0.75 0.75 0.60706
C2 C 0.75 0.75 0.55047
C3 C 0.70261 0.75 0.52379
C4 C 0.65632 0.75 0.55194
H1 H 0.65754 0.75 0.58793
C5 C 0.60836 0.75 0.52708
H2 H 0.5776 0.75 0.54579
O2 O 0.77952 0.72048 -0.13161
C1 C 0.75 0.75 -0.10706
C2 C 0.75 0.75 -0.05047
C3 C 0.79739 0.75 -0.02379
O2 O 0.72048 0.77952 -0.13161
C3 C 0.70261 0.75 -0.02379
C4 C 0.65632 0.75 -0.05194
H1 H 0.65754 0.75 -0.08793
C5 C 0.60836 0.75 -0.02708
H2 H 0.5776 0.75 -0.04579
O2 O 0.77952 0.77952 0.63161
C3 C 0.79739 0.75 0.52379
H3 H 0.75 -0.04252 0.67096
H3 H 0.75 0.54252 0.67096
H3 H 0.82904 0.75 0.54252
H3 H 0.82904 0.75 -0.04252
H3 H 0.54252 0.82904 0.75
H3 H -0.04252 0.82904 0.75
Zn1 Zn 0.29331 0.20669 -0.20669
Zn1 Zn 0.20669 0.29331 -0.20669
O2 O 0.27952 0.22048 0.86839
O2 O 0.22048 0.27952 0.86839
Zn1 Zn 0.29331 -0.20669 0.20669
Zn1 Zn 0.20669 -0.20669 0.29331
O2 O 0.22048 0.86839 0.27952
O2 O 0.27952 0.86839 0.22048
Zn1 Zn 0.29331 -0.20669 0.70669
Zn1 Zn 0.29331 0.70669 -0.20669
Zn1 Zn 0.20669 -0.20669 0.79331
Zn1 Zn 0.20669 0.79331 -0.20669
O2 O 0.22048 0.86839 0.77952
O2 O 0.27952 0.86839 0.72048
O2 O 0.27952 0.72048 0.86839
O2 O 0.22048 0.77952 0.86839
Zn1 Zn -0.20669 0.29331 0.20669
O2 O 0.86839 0.27952 0.22048
Zn1 Zn -0.20669 0.20669 0.29331
O2 O 0.86839 0.22048 0.27952
Zn1 Zn -0.20669 0.29331 0.70669
O2 O 0.86839 0.27952 0.72048
Zn1 Zn -0.20669 0.20669 0.79331
Zn1 Zn 0.79331 0.20669 -0.20669
O2 O 0.86839 0.22048 0.77952
Zn1 Zn 0.70669 0.29331 -0.20669
O2 O 0.77952 0.22048 0.86839
O2 O 0.72048 0.27952 0.86839
Zn1 Zn -0.20669 0.79331 0.20669
Zn1 Zn 0.79331 -0.20669 0.20669
O2 O 0.86839 0.77952 0.22048
Zn1 Zn -0.20669 0.70669 0.29331
O2 O 0.86839 0.72048 0.27952
Zn1 Zn 0.70669 -0.20669 0.29331
O2 O 0.72048 0.86839 0.27952
O2 O 0.77952 0.86839 0.22048
Zn1 Zn -0.20669 0.79331 0.70669
Zn1 Zn 0.79331 -0.20669 0.70669
O2 O 0.86839 0.77952 0.72048
Zn1 Zn -0.20669 0.70669 0.79331
Zn1 Zn 0.79331 0.70669 -0.20669
O2 O 0.86839 0.72048 0.77952
Zn1 Zn 0.70669 -0.20669 0.79331
Zn1 Zn 0.70669 0.79331 -0.20669
O2 O 0.72048 0.86839 0.77952
O2 O 0.77952 0.86839 0.72048
O2 O 0.77952 0.72048 0.86839
O2 O 0.72048 0.77952 0.86839

#END
