
#######################################################################
#
#                 Cambridge Crystallographic Data Centre
#                                CCDC 
#
#######################################################################
#
# If this CIF has been generated from an entry in the Cambridge 
# Structural Database, then it will include bibliographic, chemical, 
# crystal, experimental, refinement or atomic coordinate data resulting 
# from the CCDC's data processing and validation procedures.
#
#######################################################################

data_IRMOF-6
_symmetry_cell_setting           triclinic
_symmetry_space_group_name_H-M   'P 1'
_symmetry_Int_Tables_number      1
_space_group_name_Hall           'P 1'
loop_
_symmetry_equiv_pos_site_id
_symmetry_equiv_pos_as_xyz
1 x,y,z
_cell_length_a                   25.8421
_cell_length_b                   25.8421
_cell_length_c                   25.8421
_cell_angle_alpha                90
_cell_angle_beta                 90
_cell_angle_gamma                90
_cell_volume                     17257.7
loop_
_atom_site_label
_atom_site_type_symbol
_atom_site_fract_x
_atom_site_fract_y
_atom_site_fract_z
Zn1 Zn 0.20645 0.29356 0.20645
Zn1 Zn 0.79356 0.70645 0.20645
Zn1 Zn 0.20645 0.20645 0.70644
Zn1 Zn 0.79356 0.20645 0.29356
Zn1 Zn 0.79356 0.79356 0.70645
Zn1 Zn 0.20645 0.79356 0.29356
Zn1 Zn 0.20645 0.29356 0.79356
Zn1 Zn 0.20645 0.70644 0.20645
Zn1 Zn 0.79356 0.29356 0.20645
Zn1 Zn 0.79356 0.70645 0.79356
Zn1 Zn 0.79356 0.29356 0.79356
Zn1 Zn 0.20645 0.70644 0.79356
Zn1 Zn 0.29356 0.70644 0.70645
Zn1 Zn 0.70644 0.70644 0.29355
Zn1 Zn 0.29356 0.29356 0.29355
Zn1 Zn 0.70644 0.29356 0.70644
Zn1 Zn 0.29356 0.70645 0.29356
Zn1 Zn 0.70644 0.29355 0.29356
Zn1 Zn 0.29356 0.29356 0.70644
Zn1 Zn 0.20645 0.20645 0.29356
Zn1 Zn 0.70644 0.70644 0.70644
Zn1 Zn 0.20645 0.79356 0.70645
Zn1 Zn 0.79356 0.79356 0.29356
Zn1 Zn 0.79356 0.20645 0.70645
Zn1 Zn 0.29356 0.20645 0.20645
Zn1 Zn 0.70644 0.20645 0.79356
Zn1 Zn 0.29356 0.79356 0.79356
Zn1 Zn 0.70644 0.79356 0.20645
Zn1 Zn 0.29356 0.20645 0.79356
Zn1 Zn 0.70644 0.79356 0.79356
Zn1 Zn 0.29356 0.79356 0.20645
Zn1 Zn 0.70644 0.20645 0.20645
C1 C 0.25 0.25 0.11201
C2 C 0.25 0.25 0.05648
C3 C 0.27891 0.22109 0.02817
C4 C 0.31965 0.18035 0.02664
C1 C 0.75 0.75 0.11201
C2 C 0.75 0.75 0.05648
C5 C 0.72109 0.77891 0.02817
C1 C 0.75 0.25 0.88799
C2 C 0.75 0.25 0.94352
C3 C 0.72109 0.22109 0.97183
C4 C 0.68035 0.18035 0.97336
C1 C 0.25 0.75 0.88799
C2 C 0.25 0.75 0.94352
C5 C 0.27891 0.77891 0.97183
C1 C 0.11201 0.25 0.25
C2 C 0.05648 0.25 0.25
C3 C 0.02817 0.27891 0.22109
C4 C 0.02664 0.31965 0.18035
C1 C 0.11201 0.75 0.75
C2 C 0.05648 0.75 0.75
C5 C 0.02817 0.72109 0.77891
C1 C 0.88799 0.75 0.25
C2 C 0.94352 0.75 0.25
C5 C 0.97183 0.72109 0.22109
C1 C 0.88799 0.25 0.75
C2 C 0.94352 0.25 0.75
C3 C 0.97183 0.27891 0.77891
C4 C 0.97336 0.31965 0.81965
C1 C 0.25 0.11201 0.25
C2 C 0.25 0.05648 0.25
C3 C 0.22109 0.02817 0.27891
C4 C 0.18035 0.02664 0.31965
C1 C 0.75 0.11201 0.75
C2 C 0.75 0.05648 0.75
C5 C 0.77891 0.02817 0.72109
C1 C 0.25 0.88799 0.75
C2 C 0.25 0.94352 0.75
C3 C 0.22109 0.97183 0.72109
C4 C 0.18035 0.97336 0.68035
C1 C 0.75 0.88799 0.25
C2 C 0.75 0.94352 0.25
C5 C 0.77891 0.97183 0.27891
C1 C 0.25 0.25 -0.11201
C2 C 0.25 0.25 -0.05648
C5 C 0.22109 0.27891 -0.02817
C1 C 0.75 0.75 -0.11201
C2 C 0.75 0.75 -0.05648
C3 C 0.77891 0.72109 -0.02817
C4 C 0.81965 0.68035 -0.02664
C1 C 0.25 0.75 1.11201
C2 C 0.25 0.75 1.05648
C3 C 0.22109 0.72109 1.02817
C4 C 0.18035 0.68035 1.02664
C1 C 0.75 0.25 1.11201
C2 C 0.75 0.25 1.05648
C5 C 0.77891 0.27891 1.02817
C1 C 0.25 1.11201 0.75
C2 C 0.25 1.05648 0.75
C5 C 0.27891 1.02817 0.77891
C1 C 0.75 1.11201 0.25
C2 C 0.75 1.05648 0.25
C3 C 0.72109 1.02817 0.22109
C4 C 0.68035 1.02664 0.18035
C1 C 0.75 -0.11201 0.75
C2 C 0.75 -0.05648 0.75
C3 C 0.72109 -0.02817 0.77891
C4 C 0.68035 -0.02664 0.81965
C1 C 0.25 -0.11201 0.25
C2 C 0.25 -0.05648 0.25
C5 C 0.27891 -0.02817 0.22109
C1 C 1.11201 0.25 0.75
C2 C 1.05648 0.25 0.75
C5 C 1.02817 0.22109 0.72109
C1 C 1.11201 0.75 0.25
C2 C 1.05648 0.75 0.25
C3 C 1.02817 0.77891 0.27891
C4 C 1.02664 0.81965 0.31965
C1 C -0.11201 0.25 0.25
C2 C -0.05648 0.25 0.25
C5 C -0.02817 0.22109 0.27891
C1 C -0.11201 0.75 0.75
C2 C -0.05648 0.75 0.75
C3 C -0.02817 0.77891 0.72109
C4 C -0.02664 0.81965 0.68035
C5 C 0.72109 0.77891 -0.02817
C3 C 0.27891 0.22109 -0.02817
C4 C 0.31965 0.18035 -0.02664
C5 C 0.27891 0.77891 1.02817
C3 C 0.72109 0.22109 1.02817
C4 C 0.68035 0.18035 1.02664
C5 C -0.02817 0.72109 0.77891
C3 C -0.02817 0.27891 0.22109
C4 C -0.02664 0.31965 0.18035
C3 C 1.02817 0.27891 0.77891
C4 C 1.02664 0.31965 0.81965
C5 C 1.02817 0.72109 0.22109
C5 C 0.77891 -0.02817 0.72109
C3 C 0.22109 -0.02817 0.27891
C4 C 0.18035 -0.02664 0.31965
C5 C 0.77891 1.02817 0.27891
C3 C 0.22109 1.02817 0.72109
C4 C 0.18035 1.02664 0.68035
C3 C 0.77891 0.72109 0.02817
C4 C 0.81965 0.68035 0.02664
C5 C 0.22109 0.27891 0.02817
C5 C 0.77891 0.27891 0.97183
C3 C 0.22109 0.72109 0.97183
C4 C 0.18035 0.68035 0.97336
C3 C 0.72109 0.97183 0.22109
C4 C 0.68035 0.97336 0.18035
C5 C 0.27891 0.97183 0.77891
C5 C 0.27891 0.02817 0.22109
C3 C 0.72109 0.02817 0.77891
C4 C 0.68035 0.02664 0.81965
C3 C 0.97183 0.77891 0.27891
C4 C 0.97336 0.81965 0.31965
C5 C 0.97183 0.22109 0.72109
C3 C 0.02817 0.77891 0.72109
C4 C 0.02664 0.81965 0.68035
C5 C 0.02817 0.22109 0.27891
C1 C 0.25 0.75 0.61201
C2 C 0.25 0.75 0.55648
C3 C 0.27891 0.72109 0.52817
C4 C 0.31965 0.68035 0.52664
C1 C 0.75 0.25 0.61201
C2 C 0.75 0.25 0.55648
C5 C 0.72109 0.27891 0.52817
C1 C 0.75 0.75 0.38799
C2 C 0.75 0.75 0.44352
C3 C 0.72109 0.72109 0.47183
C4 C 0.68035 0.68035 0.47336
C1 C 0.25 0.25 0.38799
C2 C 0.25 0.25 0.44352
C5 C 0.27891 0.27891 0.47183
C1 C 0.25 0.61201 0.75
C2 C 0.25 0.55648 0.75
C3 C 0.22109 0.52817 0.77891
C4 C 0.18035 0.52664 0.81965
C1 C 0.75 0.61201 0.25
C2 C 0.75 0.55648 0.25
C5 C 0.77891 0.52817 0.22109
C1 C 0.25 0.38799 0.25
C2 C 0.25 0.44352 0.25
C3 C 0.22109 0.47183 0.22109
C4 C 0.18035 0.47336 0.18035
C1 C 0.75 0.38799 0.75
C2 C 0.75 0.44352 0.75
C5 C 0.77891 0.47183 0.77891
C1 C 0.25 0.75 0.38799
C2 C 0.25 0.75 0.44352
C5 C 0.22109 0.77891 0.47183
C1 C 0.75 0.25 0.38799
C2 C 0.75 0.25 0.44352
C3 C 0.77891 0.22109 0.47183
C4 C 0.81965 0.18035 0.47336
C1 C 0.25 0.25 0.61201
C2 C 0.25 0.25 0.55648
C3 C 0.22109 0.22109 0.52817
C4 C 0.18035 0.18035 0.52664
C1 C 0.75 0.75 0.61201
C2 C 0.75 0.75 0.55648
C5 C 0.77891 0.77891 0.52817
C1 C 0.25 0.61201 0.25
C2 C 0.25 0.55648 0.25
C5 C 0.27891 0.52817 0.27891
C1 C 0.75 0.61201 0.75
C2 C 0.75 0.55648 0.75
C3 C 0.72109 0.52817 0.72109
C4 C 0.68035 0.52664 0.68035
C1 C 0.75 0.38799 0.25
C2 C 0.75 0.44352 0.25
C3 C 0.72109 0.47183 0.27891
C4 C 0.68035 0.47336 0.31965
C1 C 0.25 0.38799 0.75
C2 C 0.25 0.44352 0.75
C5 C 0.27891 0.47183 0.72109
C5 C 0.72109 0.27891 0.47183
C3 C 0.27891 0.72109 0.47183
C4 C 0.31965 0.68035 0.47336
C5 C 0.27891 0.27891 0.52817
C3 C 0.72109 0.72109 0.52817
C4 C 0.68035 0.68035 0.52664
C5 C 0.77891 0.47183 0.22109
C3 C 0.22109 0.47183 0.77891
C4 C 0.18035 0.47336 0.81965
C5 C 0.77891 0.52817 0.77891
C3 C 0.22109 0.52817 0.22109
C4 C 0.18035 0.52664 0.18035
C3 C 0.77891 0.22109 0.52817
C4 C 0.81965 0.18035 0.52664
C5 C 0.22109 0.77891 0.52817
C5 C 0.77891 0.77891 0.47183
C3 C 0.22109 0.22109 0.47183
C4 C 0.18035 0.18035 0.47336
C3 C 0.72109 0.47183 0.72109
C4 C 0.68035 0.47336 0.68035
C5 C 0.27891 0.47183 0.27891
C5 C 0.27891 0.52817 0.72109
C3 C 0.72109 0.52817 0.27891
C4 C 0.68035 0.52664 0.31965
C1 C 0.61201 0.25 0.75
C2 C 0.55648 0.25 0.75
C3 C 0.52817 0.27891 0.72109
C4 C 0.52664 0.31965 0.68035
C1 C 0.61201 0.75 0.25
C2 C 0.55648 0.75 0.25
C5 C 0.52817 0.72109 0.27891
C1 C 0.38799 0.75 0.75
C2 C 0.44352 0.75 0.75
C5 C 0.47183 0.72109 0.72109
C1 C 0.38799 0.25 0.25
C2 C 0.44352 0.25 0.25
C3 C 0.47183 0.27891 0.27891
C4 C 0.47336 0.31965 0.31965
C1 C 0.61201 0.25 0.25
C2 C 0.55648 0.25 0.25
C5 C 0.52817 0.22109 0.22109
C1 C 0.61201 0.75 0.75
C2 C 0.55648 0.75 0.75
C3 C 0.52817 0.77891 0.77891
C4 C 0.52664 0.81965 0.81965
C1 C 0.38799 0.25 0.75
C2 C 0.44352 0.25 0.75
C5 C 0.47183 0.22109 0.77891
C1 C 0.38799 0.75 0.25
C2 C 0.44352 0.75 0.25
C3 C 0.47183 0.77891 0.22109
C4 C 0.47336 0.81965 0.18035
C5 C 0.47183 0.72109 0.27891
C3 C 0.47183 0.27891 0.72109
C4 C 0.47336 0.31965 0.68035
C3 C 0.52817 0.27891 0.27891
C4 C 0.52664 0.31965 0.31965
C5 C 0.52817 0.72109 0.72109
C3 C 0.47183 0.77891 0.77891
C4 C 0.47336 0.81965 0.81965
C5 C 0.47183 0.22109 0.22109
C3 C 0.52817 0.77891 0.22109
C4 C 0.52664 0.81965 0.18035
C5 C 0.52817 0.22109 0.77891
H1 H 0.31179 0.14493 0.04125
H1 H 0.68821 0.14493 0.95875
H1 H 0.04125 0.31179 0.14493
H1 H 0.95875 0.31179 0.85507
H1 H 0.14493 0.04125 0.31179
H1 H 0.14493 0.95875 0.68821
H1 H 0.85507 0.68821 -0.04125
H1 H 0.14493 0.68821 1.04125
H1 H 0.68821 1.04125 0.14493
H1 H 0.68821 -0.04125 0.85507
H1 H 1.04125 0.85507 0.31179
H1 H -0.04125 0.85507 0.68821
H1 H 0.31179 0.14493 -0.04125
H1 H 0.68821 0.14493 1.04125
H1 H -0.04125 0.31179 0.14493
H1 H 1.04125 0.31179 0.85507
H1 H 0.14493 -0.04125 0.31179
H1 H 0.14493 1.04125 0.68821
H1 H 0.85507 0.68821 0.04125
H1 H 0.14493 0.68821 0.95875
H1 H 0.68821 0.95875 0.14493
H1 H 0.68821 0.04125 0.85507
H1 H 0.95875 0.85507 0.31179
H1 H 0.04125 0.85507 0.68821
H1 H 0.31179 0.64493 0.54125
H1 H 0.68821 0.64493 0.45875
H1 H 0.04125 0.81179 0.64493
H1 H 0.95875 0.81179 0.35507
H1 H 0.14493 0.54125 0.81179
H1 H 0.14493 0.45875 0.18821
H1 H 0.85507 0.18821 0.45875
H1 H 0.14493 0.18821 0.54125
H1 H 0.68821 0.54125 0.64493
H1 H 0.68821 0.45875 0.35507
H1 H 1.04125 0.35507 0.81179
H1 H -0.04125 0.35507 0.18821
H1 H 0.31179 0.64493 0.45875
H1 H 0.68821 0.64493 0.54125
H1 H -0.04125 0.81179 0.64493
H1 H 1.04125 0.81179 0.35507
H1 H 0.14493 0.45875 0.81179
H1 H 0.14493 0.54125 0.18821
H1 H 0.85507 0.18821 0.54125
H1 H 0.14493 0.18821 0.45875
H1 H 0.68821 0.45875 0.64493
H1 H 0.68821 0.54125 0.35507
H1 H 0.95875 0.35507 0.81179
H1 H 0.04125 0.35507 0.18821
H1 H 0.81179 0.14493 0.54125
H1 H 0.18821 0.14493 0.45875
H1 H 0.54125 0.31179 0.64493
H1 H 0.45875 0.31179 0.35507
H1 H 0.64493 0.04125 0.81179
H1 H 0.64493 0.95875 0.18821
H1 H 0.35507 0.68821 0.45875
H1 H 0.64493 0.68821 0.54125
H1 H 0.18821 1.04125 0.64493
H1 H 0.18821 -0.04125 0.35507
H1 H 0.54125 0.85507 0.81179
H1 H 0.45875 0.85507 0.18821
H1 H 0.81179 0.14493 0.45875
H1 H 0.18821 0.14493 0.54125
H1 H 0.45875 0.31179 0.64493
H1 H 0.54125 0.31179 0.35507
H1 H 0.64493 -0.04125 0.81179
H1 H 0.64493 1.04125 0.18821
H1 H 0.35507 0.68821 0.54125
H1 H 0.64493 0.68821 0.45875
H1 H 0.18821 0.95875 0.64493
H1 H 0.18821 0.04125 0.35507
H1 H 0.45875 0.85507 0.81179
H1 H 0.54125 0.85507 0.18821
H1 H 0.81179 0.64493 0.04125
H1 H 0.18821 0.64493 0.95875
H1 H 0.54125 0.81179 0.14493
H1 H 0.45875 0.81179 0.85507
H1 H 0.64493 0.54125 0.31179
H1 H 0.64493 0.45875 0.68821
H1 H 0.35507 0.18821 -0.04125
H1 H 0.64493 0.18821 1.04125
H1 H 0.18821 0.54125 0.14493
H1 H 0.18821 0.45875 0.85507
H1 H 0.54125 0.35507 0.31179
H1 H 0.45875 0.35507 0.68821
H1 H 0.81179 0.64493 -0.04125
H1 H 0.18821 0.64493 1.04125
H1 H 0.45875 0.81179 0.14493
H1 H 0.54125 0.81179 0.85507
H1 H 0.64493 0.45875 0.31179
H1 H 0.64493 0.54125 0.68821
H1 H 0.35507 0.18821 0.04125
H1 H 0.64493 0.18821 0.95875
H1 H 0.18821 0.45875 0.14493
H1 H 0.18821 0.54125 0.85507
H1 H 0.45875 0.35507 0.31179
H1 H 0.54125 0.35507 0.68821
H2 H 0.54655 0.69858 0.69858
H2 H 0.45612 0.69759 0.69759
H2 H 0.45345 0.69858 0.30142
H2 H 0.54388 0.69759 0.30241
H2 H 0.45612 0.19759 0.80241
H2 H 0.54388 0.19759 0.80241
H2 H 0.45612 0.19759 0.19759
H2 H 0.54388 0.19759 0.19759
H2 H 0.30241 0.45612 0.69759
H2 H 0.30241 0.54388 0.69759
H2 H 0.30241 0.54388 0.30241
H2 H 0.30241 0.45612 0.30241
H2 H 0.80241 0.45612 0.80241
H2 H 0.80142 0.54655 0.80142
H2 H 0.80241 0.54388 0.19759
H2 H 0.80142 0.45345 0.19858
H2 H 0.30241 0.30241 0.45612
H2 H 0.30142 0.30142 0.54655
H2 H 0.19759 0.80241 0.45612
H2 H 0.19759 0.80241 0.54388
H2 H 0.80241 0.80241 0.45612
H2 H 0.80241 0.80241 0.54388
H2 H 0.69858 0.30142 0.45345
H2 H 0.69759 0.30241 0.54388
H2 H 0.04388 0.69759 0.80241
H2 H 1.04388 0.19759 0.69759
H2 H 0.04388 0.19759 0.30241
H2 H 1.04388 0.69759 0.19759
H2 H 0.30241 0.80241 1.04388
H2 H 0.19759 0.30241 0.04388
H2 H 0.69759 0.80241 0.04388
H2 H 0.80241 0.30241 1.04388
H2 H 0.95612 0.69759 0.19759
H2 H -0.04388 0.19759 0.30241
H2 H -0.04388 0.69759 0.80241
H2 H 0.95612 0.19759 0.69759
H2 H 0.80241 0.30241 0.95612
H2 H 0.69759 0.80241 -0.04388
H2 H 0.19759 0.30241 -0.04388
H2 H 0.30241 0.80241 0.95612
H2 H 0.30241 0.04388 0.19759
H2 H 0.30241 1.04388 0.80241
H2 H 0.80241 -0.04388 0.69759
H2 H 0.80241 0.95612 0.30241
H2 H 0.80241 1.04388 0.30241
H2 H 0.80241 0.04388 0.69759
H2 H 0.30241 -0.04388 0.19759
H2 H 0.30241 0.95612 0.80241
O1 O 0.25 0.25 0.25
O2 O 0.21856 0.28144 0.13341
O1 O 0.75 0.75 0.25
O2 O 0.78144 0.71856 0.13341
O1 O 0.75 0.25 0.75
O2 O 0.78144 0.28144 0.86659
O1 O 0.25 0.75 0.75
O2 O 0.21856 0.71856 0.86659
O2 O 0.13341 0.21856 0.28144
O2 O 0.13341 0.78144 0.71856
O2 O 0.86659 0.78144 0.28144
O2 O 0.86659 0.21856 0.71856
O2 O 0.28144 0.13341 0.21856
O2 O 0.71856 0.13341 0.78144
O2 O 0.28144 0.86659 0.78144
O2 O 0.71856 0.86659 0.21856
O1 O 0.25 0.25 0.75
O2 O 0.28144 0.21856 -0.13341
O1 O 0.75 0.75 0.75
O2 O 0.71856 0.78144 -0.13341
O1 O 0.25 0.75 0.25
O2 O 0.28144 0.78144 1.13341
O1 O 0.75 0.25 0.25
O2 O 0.71856 0.21856 1.13341
O2 O 0.21856 1.13341 0.71856
O2 O 0.78144 1.13341 0.28144
O2 O 0.78144 -0.13341 0.71856
O2 O 0.21856 -0.13341 0.28144
O2 O 1.13341 0.28144 0.78144
O2 O 1.13341 0.71856 0.21856
O2 O -0.13341 0.28144 0.21856
O2 O -0.13341 0.71856 0.78144
O2 O 0.78144 0.71856 -0.13341
O2 O 0.21856 0.28144 -0.13341
O2 O 0.21856 0.71856 1.13341
O2 O 0.78144 0.28144 1.13341
O2 O -0.13341 0.78144 0.71856
O2 O -0.13341 0.21856 0.28144
O2 O 1.13341 0.21856 0.71856
O2 O 1.13341 0.78144 0.28144
O2 O 0.71856 -0.13341 0.78144
O2 O 0.28144 -0.13341 0.21856
O2 O 0.71856 1.13341 0.21856
O2 O 0.28144 1.13341 0.78144
O2 O 0.71856 0.78144 0.13341
O2 O 0.28144 0.21856 0.13341
O2 O 0.71856 0.21856 0.86659
O2 O 0.28144 0.78144 0.86659
O2 O 0.78144 0.86659 0.28144
O2 O 0.21856 0.86659 0.71856
O2 O 0.21856 0.13341 0.28144
O2 O 0.78144 0.13341 0.71856
O2 O 0.86659 0.71856 0.21856
O2 O 0.86659 0.28144 0.78144
O2 O 0.13341 0.71856 0.78144
O2 O 0.13341 0.28144 0.21856
O2 O 0.21856 0.78144 0.63341
O2 O 0.78144 0.21856 0.63341
O2 O 0.78144 0.78144 0.36659
O2 O 0.21856 0.21856 0.36659
O2 O 0.28144 0.63341 0.71856
O2 O 0.71856 0.63341 0.28144
O2 O 0.28144 0.36659 0.28144
O2 O 0.71856 0.36659 0.71856
O2 O 0.28144 0.71856 0.36659
O2 O 0.71856 0.28144 0.36659
O2 O 0.28144 0.28144 0.63341
O2 O 0.71856 0.71856 0.63341
O2 O 0.21856 0.63341 0.21856
O2 O 0.78144 0.63341 0.78144
O2 O 0.78144 0.36659 0.21856
O2 O 0.21856 0.36659 0.78144
O2 O 0.78144 0.21856 0.36659
O2 O 0.21856 0.78144 0.36659
O2 O 0.21856 0.21856 0.63341
O2 O 0.78144 0.78144 0.63341
O2 O 0.71856 0.36659 0.28144
O2 O 0.28144 0.36659 0.71856
O2 O 0.71856 0.63341 0.71856
O2 O 0.28144 0.63341 0.28144
O2 O 0.71856 0.28144 0.63341
O2 O 0.28144 0.71856 0.63341
O2 O 0.71856 0.71856 0.36659
O2 O 0.28144 0.28144 0.36659
O2 O 0.78144 0.36659 0.78144
O2 O 0.21856 0.36659 0.21856
O2 O 0.21856 0.63341 0.78144
O2 O 0.78144 0.63341 0.21856
O2 O 0.63341 0.21856 0.78144
O2 O 0.63341 0.78144 0.21856
O2 O 0.36659 0.78144 0.78144
O2 O 0.36659 0.21856 0.21856
O2 O 0.63341 0.28144 0.28144
O2 O 0.63341 0.71856 0.71856
O2 O 0.36659 0.28144 0.71856
O2 O 0.36659 0.71856 0.28144
O2 O 0.36659 0.78144 0.21856
O2 O 0.36659 0.21856 0.78144
O2 O 0.63341 0.21856 0.21856
O2 O 0.63341 0.78144 0.78144
O2 O 0.36659 0.71856 0.71856
O2 O 0.36659 0.28144 0.28144
O2 O 0.63341 0.71856 0.28144
O2 O 0.63341 0.28144 0.71856
Zn1 Zn 0.20645 1.20645 0.70644
Zn1 Zn 1.20645 0.20645 0.70644
Zn1 Zn -0.20644 0.20645 0.29356
Zn1 Zn 0.79356 1.20645 0.29356
Zn1 Zn -0.20644 0.79356 0.70645
Zn1 Zn 0.79356 -0.20644 0.70645
Zn1 Zn 0.20645 -0.20644 0.29356
Zn1 Zn 1.20645 0.79356 0.29356
Zn1 Zn 0.20645 0.29356 -0.20644
Zn1 Zn 1.20645 0.29356 0.79356
Zn1 Zn 0.20645 0.70644 1.20645
Zn1 Zn 1.20645 0.70644 0.20645
Zn1 Zn -0.20644 0.29356 0.20645
Zn1 Zn 0.79356 0.29356 1.20645
Zn1 Zn -0.20644 0.70645 0.79356
Zn1 Zn 0.79356 0.70645 -0.20644
Zn1 Zn 0.29356 0.20645 -0.20644
Zn1 Zn 0.29356 1.20645 0.79356
Zn1 Zn 0.70644 -0.20644 0.79356
Zn1 Zn 0.70644 0.79356 -0.20644
Zn1 Zn 0.29356 -0.20644 0.20645
Zn1 Zn 0.29356 0.79356 1.20645
Zn1 Zn 0.70644 0.20645 1.20645
Zn1 Zn 0.70644 1.20645 0.20645
O2 O 0.28144 0.21856 0.86659
O2 O 0.71856 0.78144 0.86659
O2 O 0.28144 0.78144 0.13341
O2 O 0.71856 0.21856 0.13341
O2 O 0.21856 0.13341 0.71856
O2 O 0.78144 0.13341 0.28144
O2 O 0.78144 0.86659 0.71856
O2 O 0.21856 0.86659 0.28144
O2 O 0.13341 0.28144 0.78144
O2 O 0.13341 0.71856 0.21856
O2 O 0.86659 0.28144 0.21856
O2 O 0.86659 0.71856 0.78144
O2 O 0.78144 0.71856 0.86659
O2 O 0.21856 0.28144 0.86659
O2 O 0.21856 0.71856 0.13341
O2 O 0.78144 0.28144 0.13341
O2 O 0.86659 0.78144 0.71856
O2 O 0.86659 0.21856 0.28144
O2 O 0.13341 0.21856 0.71856
O2 O 0.13341 0.78144 0.28144
O2 O 0.71856 0.86659 0.78144
O2 O 0.28144 0.86659 0.21856
O2 O 0.71856 0.13341 0.21856
O2 O 0.28144 0.13341 0.78144

#END
